*Heading
** Job name: Job-1 Model name: Model-1
** Generated by: Abaqus/CAE 2018
*Preprint, echo=NO, model=NO, history=NO, contact=NO
**
** PARTS
**
*Part, name=Part-1
*Node
      1,           0., 0.00241538463
      2,           0., 0.00483076926
      3,           0., 0.00724615389
      4,           0., 0.0108692311
      5,           0., 0.0132846152
      6,           0.,           0.
      7,           0., 0.0156999994
      8, 0.0604799986,           0.
      9, 0.0579599999,           0.
     10, 0.0554400012,           0.
     11, 0.0529199988,           0.
     12, 0.0504000001,           0.
     13, 0.0478800014,           0.
     14, 0.0441000015,           0.
     15,  0.041579999,           0.
     16, 0.0390600003,           0.
     17, 0.0365400016,           0.
     18, 0.0340199992,           0.
     19, 0.0315000005,           0.
     20, 0.0289799999,           0.
** ... 1516 like lines cut
*Element, type=CPS3
 1,  411, 1321,  410
 2,  726,  231,  673
 3,  960,  958,  959
 4, 1322, 1319,  697
 5,  816,  841,  782
 6, 1402,  866,  830
 7, 1038,  837,  475
 8, 1449,  852,  876
 9, 1013,  870,  878
10, 1460,  880,  850
11,  889,  867,  952
12, 1383,  912,  127
13, 1496,  146, 1042
14, 1495,  942,  948
15, 1492,  973,  252
16, 1528, 1529, 1531
17, 1220, 1156, 1089
18, 1447,  820, 1037
19, 1190, 1112, 1523
20, 1523, 1112,  242
** ... 17 like lines cut
*Element, type=CPS4
  38,  451,  582,  425,  430
  39,   77,  558,  556,  405
  40,  557,  555, 1128,  605
  41,  475,   75,  554, 1038
  42,  554,   75,  406,  557
  43,   74,  402,  474,  639
  44,  613,  662,  697, 1065
  45,   83, 1176, 1378, 1065
  46,  110, 1420, 1215, 1443
  47, 1265, 1273, 1224,  108
  48, 1159, 1532, 1205,   86
  49, 1132,   87, 1535,  993
  50,  939,  943,  957,   88
  51,  824,  867,  889,   90
  52, 1060,  742,  764, 1403
  53,  704, 1039,  621, 1320
  54,  621,  565,  102, 1320
  55,  421,  447,   54,  373
  56,  417,  421,  373,  372
  57,   80, 1067,  413,  415
** ... 1410 like lines cut
*Nset, nset=d1
  54,  55,  56, 370, 371, 372, 373
*Elset, elset=d1
  55,  56, 222, 223, 575, 604
*Nset, nset=d2
  46,  47, 366, 367
*Elset, elset=d2
 190, 197, 595
*Nset, nset=fixed
   1,   2,   3,   4,   5,   6,   7,   8,   9,  10,  11,  12,  13,  14,  15,  16
  17,  18,  19,  20,  21,  22,  23,  24,  25,  26,  27,  28,  29,  30,  31,  32
  33,  34,  35,  36,  37,  38,  39,  40,  41,  42, 312, 313, 314, 315, 316, 317
 318, 319, 320, 321, 322, 323, 324, 325, 326, 327, 328, 329, 330, 331, 332, 333
 334, 335, 336, 337, 338, 339, 340, 341, 342, 343, 344, 345, 346, 347, 348, 349
 350, 351, 352, 353, 354, 355, 356, 357, 358, 359, 360, 361
*Elset, elset=fixed
  84,  85,  91,  92,  93,  94,  98, 100, 102, 103, 104, 105, 106, 108, 109, 110
 128, 133, 175, 179, 185, 191, 198, 204, 209, 213, 215, 218, 220, 464, 465, 466
 467, 468, 476, 537, 538, 541, 543, 544, 545, 546, 547, 548, 549, 550, 554, 561
 562, 564, 568, 570, 571, 591, 612, 613, 614, 615, 616, 620, 640, 641, 642, 643
 645, 647, 648, 650, 678, 679, 680, 681, 682, 683, 684, 685, 686, 692, 693, 694
 695, 696, 697, 698, 700, 701, 702, 723
*Nset, nset=Set-4, generate
    1,  1536,     1
*Elset, elset=Set-4, generate
    1,  1467,     1
*Nset, nset=contact_pressure
   7,  41,  42,  43,  44,  45,  46,  47,  48,  49,  50,  51,  52,  53,  54,  55
  56,  57,  58,  59,  60,  61,  62,  63,  64,  65,  66,  67,  68,  69,  70,  71
  72,  73,  74,  75,  76,  77,  78, 358, 359, 360, 361, 362, 363, 364, 365, 366
 367, 368, 369, 370, 371, 372, 373, 374, 375, 376, 377, 378, 379, 380, 381, 382
 383, 384, 385, 386, 387, 388, 389, 390, 391, 392, 393, 394, 395, 396, 397, 398
 399, 400, 401, 402, 403, 404, 405, 406
*Elset, elset=contact_pressure
  39,  42,  43,  55,  56,  64,  66,  67, 117, 118, 120, 121, 177, 178, 184, 190
 196, 197, 202, 203, 208, 212, 213, 220, 222, 223, 230, 231, 239, 240, 241, 242
 244, 245, 246, 248, 249, 250, 251, 261, 262, 263, 264, 265, 266, 267, 268, 273
 275, 276, 278, 292, 337, 350, 561, 571, 572, 573, 574, 575, 576, 577, 579, 580
 581, 582, 583, 584, 586, 587, 589, 590, 591, 595, 604, 623, 625, 634, 656, 657
 664, 667, 668, 673, 676, 723, 725
*Elset, elset=_Surf-1_S4, internal
  39, 177, 178, 184, 196, 208, 263, 265, 278, 292, 572, 582
*Elset, elset=_Surf-1_S2, internal
  42, 118, 190, 197, 202, 203, 261, 262, 264, 266, 268, 573, 574, 589, 590, 595
 623, 625, 725
*Elset, elset=_Surf-1_S3, internal
  55,  56,  64,  67, 117, 120, 212, 223, 239, 244, 246, 251, 267, 276, 350, 575
 656, 667, 673, 676
*Elset, elset=_Surf-1_S1, internal
  43,  66, 121, 222, 230, 231, 240, 241, 242, 245, 248, 249, 250, 273, 275, 337
 576, 577, 579, 580, 581, 583, 584, 586, 587, 591, 604, 634, 657, 664, 668
*Surface, type=ELEMENT, name=Surf-1
_Surf-1_S4, S4
_Surf-1_S2, S2
_Surf-1_S3, S3
_Surf-1_S1, S1
** Section: Section-1
*Solid Section, elset=Set-4, material=Mooney-Rivlin
,
*End Part
**  
*Part, name=Part-3
*Node
      1, -0.0250000004, 0.0408999994
      2,      -0.0137, 0.0408999994
      3, -0.00240000011, 0.0408999994
      4, 0.00889999978, 0.0408999994
      5, 0.0201999992, 0.0408999994
      6, 0.0315000005, 0.0408999994
      7, 0.0428000018, 0.0408999994
      8, 0.0540999994, 0.0408999994
      9, 0.0653999969, 0.0408999994
     10,  0.076700002, 0.0408999994
     11, 0.0879999995, 0.0408999994
*Element, type=R2D2
 1,  1,  2
 2,  2,  3
 3,  3,  4
 4,  4,  5
 5,  5,  6
 6,  6,  7
 7,  7,  8
 8,  8,  9
 9,  9, 10
10, 10, 11
*Node
     12, 0.0315000005, 0.0408999994,           0.
*Nset, nset=Part-3-RefPt_, internal
12, 
*Nset, nset=top, generate
  1,  12,   1
*Elset, elset=top, generate
  1,  10,   1
*Elset, elset=Part-3, generate
  1,  10,   1
*End Part
**  
**
** ASSEMBLY
**
*Assembly, name=Assembly
**  
*Instance, name=Part-1-1, part=Part-1
*End Instance
**  
*Instance, name=Part-3-1, part=Part-3
*End Instance
**  
*Nset, nset=Set-2, instance=Part-3-1, generate
  1,  11,   1
*Elset, elset=Set-2, instance=Part-3-1, generate
  1,  10,   1
*Elset, elset=_CP-3-Part-1-1_S4, internal, instance=Part-1-1
  39, 177, 178, 184, 196, 208, 263, 265, 278, 292, 572, 582
*Elset, elset=_CP-3-Part-1-1_S2, internal, instance=Part-1-1
  42, 118, 190, 197, 202, 203, 261, 262, 264, 266, 268, 573, 574, 589, 590, 595
 623, 625, 725
*Elset, elset=_CP-3-Part-1-1_S3, internal, instance=Part-1-1
  55,  56,  64,  67, 117, 120, 212, 223, 239, 244, 246, 251, 267, 276, 350, 575
 656, 667, 673, 676
*Elset, elset=_CP-3-Part-1-1_S1, internal, instance=Part-1-1
  43,  66, 121, 222, 230, 231, 240, 241, 242, 245, 248, 249, 250, 273, 275, 337
 576, 577, 579, 580, 581, 583, 584, 586, 587, 591, 604, 634, 657, 664, 668
*Surface, type=ELEMENT, name=CP-3-Part-1-1
_CP-3-Part-1-1_S4, S4
_CP-3-Part-1-1_S2, S2
_CP-3-Part-1-1_S3, S3
_CP-3-Part-1-1_S1, S1
*Elset, elset=_Surf-5_SNEG, internal, instance=Part-3-1, generate
  1,  10,   1
*Surface, type=ELEMENT, name=Surf-5
_Surf-5_SNEG, SNEG
*Elset, elset=_s_Surf-1_S2, internal, instance=Part-1-1
  42,  84,  92,  93,  94, 104, 110, 118, 175, 179, 185, 190, 191, 197, 198, 202
 203, 204, 209, 215, 261, 262, 264, 266, 268, 465, 466, 467, 468, 476, 573, 574
 589, 590, 591, 595, 612, 613, 614, 615, 616, 620, 623, 625, 641, 642, 643, 645
 647, 648, 650, 692, 693, 694, 695, 696, 697, 698, 701, 702, 725
*Elset, elset=_s_Surf-1_S4, internal, instance=Part-1-1
  39,  98, 100, 102, 103, 105, 106, 108, 109, 128, 133, 177, 178, 184, 196, 208
 218, 263, 265, 278, 292, 464, 537, 538, 541, 543, 544, 545, 546, 547, 548, 549
 550, 554, 561, 562, 564, 568, 570, 572, 582
*Elset, elset=_s_Surf-1_S3, internal, instance=Part-1-1
  55,  56,  64,  67,  84, 109, 117, 120, 212, 213, 223, 239, 244, 246, 251, 267
 276, 350, 571, 575, 656, 667, 673, 676, 700, 723
*Elset, elset=_s_Surf-1_S1, internal, instance=Part-1-1
  43,  66,  85,  91, 121, 220, 222, 230, 231, 240, 241, 242, 245, 248, 249, 250
 273, 275, 337, 561, 576, 577, 579, 580, 581, 583, 584, 586, 587, 591, 604, 634
 640, 657, 664, 668, 678, 679, 680, 681, 682, 683, 684, 685, 686
*Surface, type=ELEMENT, name=s_Surf-1
_s_Surf-1_S2, S2
_s_Surf-1_S4, S4
_s_Surf-1_S3, S3
_s_Surf-1_S1, S1
*Rigid Body, ref node=Part-3-1.Part-3-RefPt_, elset=Part-3-1.Part-3
*End Assembly
** 
** MATERIALS
** 
*Material, name=Mooney-Rivlin
*Hyperelastic, mooney-rivlin
 4.57693e+06,     553472., 1.95568e-09
** 
** INTERACTION PROPERTIES
** 
*Surface Interaction, name=IntProp-1
1.,
*Friction, slip tolerance=0.005
 0.05,
*Surface Interaction, name=IntProp-2
1.,
*Friction, slip tolerance=0.005
 0.05,
** 
** CONTACT INITIALIZATION DATA
** 
*Contact Initialization Data, name=CInit-1
** 
** BOUNDARY CONDITIONS
** 
** Name: BC-1 Type: Displacement/Rotation
*Boundary
Part-1-1.fixed, 1, 1
Part-1-1.fixed, 2, 2
** 
** INTERACTIONS
** 
** Interaction: Int-2
*Contact Pair, interaction=IntProp-1, type=SURFACE TO SURFACE, adjust=1e-05
s_Surf-1, Surf-5
** Interaction: self_contact
*Contact Pair, interaction=IntProp-1, type=SURFACE TO SURFACE, adjust=1e-05
s_Surf-1, s_Surf-1
** ----------------------------------------------------------------
** 
** STEP: Step-1
** 
*Step, name=Step-1, nlgeom=YES, inc=2000
*Static, direct
0.05, 1., 
** 
** BOUNDARY CONDITIONS
** 
** Name: BC-2 Type: Displacement/Rotation
*Boundary
Set-2, 1, 1
Set-2, 2, 2, -0.0126
** 
** OUTPUT REQUESTS
** 
*Restart, write, frequency=0
** 
** FIELD OUTPUT: F-Output-1
** 
*Output, field
*Node Output
CF, RF, U
*Element Output, directions=YES
HP, LE, MISES, P, PE, PEEQ, PEMAG, S
*Contact Output
CDISP, CSTRESS
** 
** FIELD OUTPUT: F-Output-2
** 
*Element Output, directions=YES
HP, MISES, P
*Contact Output
CSTRESS, 
** 
** HISTORY OUTPUT: H-Output-1
** 
*Output, history, variable=PRESELECT
*End Step
