1

   Abaqus 3DEXPERIENCE R2018x                                  Date 22-Mar-2018   Time 14:47:54
   For use by UNIVERSITY OF FLORIDA under license from Dassault Systemes or its subsidiary.

                                                                                 
                                                                                 
 STEP    1     INCREMENT     1     STEP TIME    0.00    


                        S T E P       1     S T A T I C   A N A L Y S I S


                                                                                          

          FIXED TIME INCREMENTS
          TIME INCREMENT IS                                    5.000E-02
          TIME PERIOD IS                                        1.00    

     LINEAR EQUATION SOLVER TYPE         DIRECT SPARSE

 CONVERGENCE TOLERANCE PARAMETERS FOR FORCE    
     CRITERION FOR RESIDUAL FORCE     FOR A NONLINEAR PROBLEM          5.000E-03
     CRITERION FOR DISP.    CORRECTION IN A NONLINEAR PROBLEM          1.000E-02
     INITIAL VALUE OF TIME AVERAGE FORCE                               1.000E-02
     AVERAGE FORCE     IS TIME AVERAGE FORCE    
     ALTERNATE CRIT. FOR RESIDUAL FORCE     FOR A NONLINEAR PROBLEM    2.000E-02
     CRITERION FOR ZERO FORCE     RELATIVE TO TIME AVRG. FORCE         1.000E-05
     CRITERION FOR RESIDUAL FORCE     WHEN THERE IS ZERO FLUX          1.000E-05
     CRITERION FOR DISP.    CORRECTION WHEN THERE IS ZERO FLUX         1.000E-03
     CRITERION FOR RESIDUAL FORCE     FOR A LINEAR INCREMENT           1.000E-08
     FIELD CONVERSION RATIO                                             1.00    
     CRITERION FOR ZERO FORCE     REL. TO TIME AVRG. MAX. FORCE        1.000E-05
     CRITERION FOR ZERO DISP.    RELATIVE TO CHARACTERISTIC LENGTH     1.000E-08

 CONVERGENCE TOLERANCE PARAMETERS FOR MOMENT   
     CRITERION FOR RESIDUAL MOMENT    FOR A NONLINEAR PROBLEM          5.000E-03
     CRITERION FOR ROTATION CORRECTION IN A NONLINEAR PROBLEM          1.000E-02
     INITIAL VALUE OF TIME AVERAGE MOMENT                              1.000E-02
     AVERAGE MOMENT    IS TIME AVERAGE MOMENT   
     ALTERNATE CRIT. FOR RESIDUAL MOMENT    FOR A NONLINEAR PROBLEM    2.000E-02
     CRITERION FOR ZERO MOMENT    RELATIVE TO TIME AVRG. MOMENT        1.000E-05
     CRITERION FOR RESIDUAL MOMENT    WHEN THERE IS ZERO FLUX          1.000E-05
     CRITERION FOR ROTATION CORRECTION WHEN THERE IS ZERO FLUX         1.000E-03
     CRITERION FOR RESIDUAL MOMENT    FOR A LINEAR INCREMENT           1.000E-08
     FIELD CONVERSION RATIO                                             1.00    
     CRITERION FOR ZERO MOMENT    REL. TO TIME AVRG. MAX. MOMENT       1.000E-05

     VOLUMETRIC STRAIN COMPATIBILITY TOLERANCE FOR HYBRID SOLIDS       1.000E-05
     AXIAL STRAIN COMPATIBILITY TOLERANCE FOR HYBRID BEAMS             1.000E-05
     TRANS. SHEAR STRAIN COMPATIBILITY TOLERANCE FOR HYBRID BEAMS      1.000E-05
     SOFT CONTACT CONSTRAINT COMPATIBILITY TOLERANCE FOR P>P0          5.000E-03
     SOFT CONTACT CONSTRAINT COMPATIBILITY TOLERANCE FOR P=0.0         0.100    
     CONTACT FORCE ERROR TOLERANCE FOR CONVERT SDI=YES                 1.00    
     DISPLACEMENT COMPATIBILITY TOLERANCE FOR DCOUP ELEMENTS           1.000E-05
     ROTATION COMPATIBILITY TOLERANCE FOR DCOUP ELEMENTS               1.000E-05

 EQUILIBRIUM WILL BE CHECKED FOR SEVERE DISCONTINUITY ITERATIONS

 ITERATION CONTROL PARAMETERS:
     FIRST EQUILIBRIUM ITERATION FOR CONSECUTIVE DIVERGENCE CHECK              4
     EQUILIBRIUM ITERATION AFTER WHICH ALTERNATE RESIDUAL IS USED              9
     MAXIMUM EQUILIBRIUM ITERATIONS ALLOWED                                   16
     MAXIMUM ITERATIONS FOR SEVERE DISCONTINUITIES                            12

 CONTACT CONTROLS APPLIED TO ALL CONTACT PAIRS:
     GLOBAL STABILIZATION CONTROL IS NOT USED
     RELATIVE PENETRATION TOLERANCE FOR AUGMENTED LAGRANGE CONTACT:
          FINITE-SLIDING SURFACE-TO-SURFACE                            5.000E-02
          OTHERWISE                                                    1.000E-03

          PRINT OF INCREMENT NUMBER, TIME, ETC., EVERY    1  INCREMENTS

     THE MAXIMUM NUMBER OF INCREMENTS IN THIS STEP IS                    2000

          LARGE DISPLACEMENT THEORY WILL BE USED

     LINEAR EXTRAPOLATION WILL BE USED

     CHARACTERISTIC ELEMENT LENGTH     1.148E-03

     DETAILS REGARDING ACTUAL SOLUTION WAVEFRONT REQUESTED

     DETAILED OUTPUT OF DIAGNOSTICS TO DATABASE REQUESTED

     PRINT OF INCREMENT NUMBER, TIME, ETC., TO THE MESSAGE FILE EVERY     1  INCREMENTS

     ELEMENT OPERATIONS WILL BE CARRIED OUT IN PARALLEL USING   4 PROCESSORS

     PARALLEL CONTACT TRACKING ENABLED


     COLLECTING MODEL CONSTRAINT INFORMATION FOR OVERCONSTRAINT CHECKS

     COLLECTING STEP CONSTRAINT INFORMATION FOR OVERCONSTRAINT CHECKS
  
     ASYNCHRONOUS OUTPUT DATABASE FRAME FLUSH STARTED
  


  INCREMENT     1 STARTS. ATTEMPT NUMBER  1, TIME INCREMENT  5.000E-02
  
     ASYNCHRONOUS TRACKING ELEMENT LOOP STARTED
  
 
     INITIAL ELEMENT LOAD BALANCE
        COMPUTE NODE   1   PROCESS    NUMBER OF ELEMENTS
                              1            512
                              2            594
                              3            512
                              4            680

  NUMBER OF EQUATIONS =      3349     NUMBER OF RHS =    1
  NUMBER OF FLOATING PT. OPERATIONS =  7.93E+06

  USING THE DIRECT SOLVER WITH   4 PROCESSORS

     CHECK POINT   START OF SOLVER    

     CHECK POINT  END OF SOLVER       

       ELAPSED USER TIME (SEC)      =  6.00000E-02
       ELAPSED SYSTEM TIME (SEC)    =  1.00000E-02
       ELAPSED TOTAL CPU TIME (SEC) =  7.00000E-02
       ELAPSED WALLCLOCK TIME (SEC) =          0
  
     ASYNCHRONOUS TRACKING ELEMENT LOOP STARTED
  

                    9 SEVERE DISCONTINUITIES OCCURRED DURING THIS ITERATION.
                    4 POINTS CHANGED FROM OPEN TO CLOSED
                    5 POINTS CHANGED FROM STICKING TO SLIPPING

               CONVERGENCE CHECKS FOR SEVERE DISCONTINUITY ITERATION     1

   MAX. PENETRATION ERROR 117.862E-06   AT NODE PART-1-1.428 OF CONTACT PAIR 
   (ASSEMBLY_S_SURF-1,ASSEMBLY_SURF-5)
   MAX. CONTACT FORCE ERROR 3.82923E+03 AT NODE PART-1-1.428 OF CONTACT PAIR 
   (ASSEMBLY_S_SURF-1,ASSEMBLY_SURF-5)
          PENETRATION ERROR TOO LARGE COMPARED TO DISPLACEMENT INCREMENT.

 AVERAGE FORCE                       55.6       TIME AVG. FORCE        55.6    
 LARGEST RESIDUAL FORCE              642.       AT NODE         64   DOF  2
   INSTANCE: PART-1-1                                                                        
 LARGEST INCREMENT OF DISP.        -6.626E-04   AT NODE         64   DOF  2
   INSTANCE: PART-1-1                                                                        
 LARGEST CORRECTION TO DISP.       -6.626E-04   AT NODE         64   DOF  2
   INSTANCE: PART-1-1                                                                        
          FORCE     EQUILIBRIUM NOT ACHIEVED WITHIN TOLERANCE.

 AVERAGE MOMENT                     0.731       TIME AVG. MOMENT      0.731    
 ALL MOMENT    RESIDUALS ARE ZERO
 LARGEST INCREMENT OF ROTATION     -5.119E-35   AT NODE         12   DOF  6
   INSTANCE: PART-3-1                                                                        
 LARGEST CORRECTION TO ROTATION    -5.119E-35   AT NODE         12   DOF  6
   INSTANCE: PART-3-1                                                                        
          THE MOMENT    EQUILIBRIUM EQUATIONS HAVE CONVERGED

  NUMBER OF EQUATIONS =      3349     NUMBER OF RHS =    1
  NUMBER OF FLOATING PT. OPERATIONS =  8.04E+06

  USING THE DIRECT SOLVER WITH   4 PROCESSORS

     CHECK POINT   START OF SOLVER    

     CHECK POINT  END OF SOLVER       

       ELAPSED USER TIME (SEC)      =  7.00000E-02
       ELAPSED SYSTEM TIME (SEC)    =  1.00000E-02
       ELAPSED TOTAL CPU TIME (SEC) =  8.00000E-02
       ELAPSED WALLCLOCK TIME (SEC) =          0
  
     ASYNCHRONOUS TRACKING ELEMENT LOOP STARTED
  

                    2 SEVERE DISCONTINUITIES OCCURRED DURING THIS ITERATION.
                    2 POINTS CHANGED FROM SLIPPING TO STICKING

               CONVERGENCE CHECKS FOR SEVERE DISCONTINUITY ITERATION     2

   MAX. PENETRATION ERROR -4.58446E-06 AT NODE PART-1-1.397 OF CONTACT PAIR 
   (ASSEMBLY_S_SURF-1,ASSEMBLY_SURF-5)
   MAX. CONTACT FORCE ERROR -148.663       AT NODE PART-1-1.397 OF CONTACT PAIR 
   (ASSEMBLY_S_SURF-1,ASSEMBLY_SURF-5)
          PENETRATION ERROR TOO LARGE COMPARED TO DISPLACEMENT INCREMENT.

 AVERAGE FORCE                       68.1       TIME AVG. FORCE        68.1    
 LARGEST RESIDUAL FORCE             1.229E+03   AT NODE         64   DOF  1
   INSTANCE: PART-1-1                                                                        
 LARGEST INCREMENT OF DISP.        -6.343E-04   AT NODE         64   DOF  2
   INSTANCE: PART-1-1                                                                        
 LARGEST CORRECTION TO DISP.       -1.387E-04   AT NODE        397   DOF  2
   INSTANCE: PART-1-1                                                                        
          FORCE     EQUILIBRIUM NOT ACHIEVED WITHIN TOLERANCE.

 AVERAGE MOMENT                     0.939       TIME AVG. MOMENT      0.939    
 ALL MOMENT    RESIDUALS ARE ZERO
 LARGEST INCREMENT OF ROTATION     -6.420E-35   AT NODE         12   DOF  6
   INSTANCE: PART-3-1                                                                        
 LARGEST CORRECTION TO ROTATION    -1.301E-35   AT NODE         12   DOF  6
   INSTANCE: PART-3-1                                                                        
          THE MOMENT    EQUILIBRIUM EQUATIONS HAVE CONVERGED

  NUMBER OF EQUATIONS =      3349     NUMBER OF RHS =    1
  NUMBER OF FLOATING PT. OPERATIONS =  8.04E+06

  USING THE DIRECT SOLVER WITH   4 PROCESSORS

     CHECK POINT   START OF SOLVER    

     CHECK POINT  END OF SOLVER       

       ELAPSED USER TIME (SEC)      =  5.00000E-02
       ELAPSED SYSTEM TIME (SEC)    =  3.00000E-02
       ELAPSED TOTAL CPU TIME (SEC) =  8.00000E-02
       ELAPSED WALLCLOCK TIME (SEC) =          0
  
     ASYNCHRONOUS TRACKING ELEMENT LOOP STARTED
  

                    1 SEVERE DISCONTINUITIES OCCURRED DURING THIS ITERATION.
                    1 POINTS CHANGED FROM STICKING TO SLIPPING

               CONVERGENCE CHECKS FOR SEVERE DISCONTINUITY ITERATION     3

   MAX. PENETRATION ERROR -1.38694E-06 AT NODE PART-1-1.398 OF CONTACT PAIR 
   (ASSEMBLY_S_SURF-1,ASSEMBLY_SURF-5)
   MAX. CONTACT FORCE ERROR -45.1420      AT NODE PART-1-1.398 OF CONTACT PAIR 
   (ASSEMBLY_S_SURF-1,ASSEMBLY_SURF-5)
          THE CONTACT CONSTRAINT ERRORS ARE WITHIN THE TOLERANCES.

 AVERAGE FORCE                       68.1       TIME AVG. FORCE        68.1    
 LARGEST RESIDUAL FORCE              187.       AT NODE        428   DOF  1
   INSTANCE: PART-1-1                                                                        
 LARGEST INCREMENT OF DISP.        -6.341E-04   AT NODE         64   DOF  2
   INSTANCE: PART-1-1                                                                        
 LARGEST CORRECTION TO DISP.        5.107E-05   AT NODE         64   DOF  1
   INSTANCE: PART-1-1                                                                        
          FORCE     EQUILIBRIUM NOT ACHIEVED WITHIN TOLERANCE.

 AVERAGE MOMENT                     0.941       TIME AVG. MOMENT      0.941    
 ALL MOMENT    RESIDUALS ARE ZERO
 LARGEST INCREMENT OF ROTATION     -6.409E-35   AT NODE         12   DOF  6
   INSTANCE: PART-3-1                                                                        
 LARGEST CORRECTION TO ROTATION     1.147E-37   AT NODE         12   DOF  6
   INSTANCE: PART-3-1                                                                        
          THE MOMENT    EQUILIBRIUM EQUATIONS HAVE CONVERGED

  NUMBER OF EQUATIONS =      3349     NUMBER OF RHS =    1
  NUMBER OF FLOATING PT. OPERATIONS =  8.04E+06

  USING THE DIRECT SOLVER WITH   4 PROCESSORS

     CHECK POINT   START OF SOLVER    

     CHECK POINT  END OF SOLVER       

       ELAPSED USER TIME (SEC)      =  5.00000E-02
       ELAPSED SYSTEM TIME (SEC)    =  2.00000E-02
       ELAPSED TOTAL CPU TIME (SEC) =  7.00000E-02
       ELAPSED WALLCLOCK TIME (SEC) =          0
  
     ASYNCHRONOUS TRACKING ELEMENT LOOP STARTED
  

               CONVERGENCE CHECKS FOR EQUILIBRIUM ITERATION     1

   MAX. PENETRATION ERROR 509.552E-09   AT NODE PART-1-1.427 OF CONTACT PAIR 
   (ASSEMBLY_S_SURF-1,ASSEMBLY_SURF-5)
   MAX. CONTACT FORCE ERROR 16.5681      AT NODE PART-1-1.427 OF CONTACT PAIR 
   (ASSEMBLY_S_SURF-1,ASSEMBLY_SURF-5)
          THE CONTACT CONSTRAINTS HAVE CONVERGED.

 AVERAGE FORCE                       68.1       TIME AVG. FORCE        68.1    
 LARGEST RESIDUAL FORCE              15.8       AT NODE        428   DOF  2
   INSTANCE: PART-1-1                                                                        
 LARGEST INCREMENT OF DISP.        -6.337E-04   AT NODE         64   DOF  2
   INSTANCE: PART-1-1                                                                        
 LARGEST CORRECTION TO DISP.        1.574E-05   AT NODE        428   DOF  1
   INSTANCE: PART-1-1                                                                        
          FORCE     EQUILIBRIUM NOT ACHIEVED WITHIN TOLERANCE.

 AVERAGE MOMENT                     0.938       TIME AVG. MOMENT      0.938    
 ALL MOMENT    RESIDUALS ARE ZERO
 LARGEST INCREMENT OF ROTATION     -6.401E-35   AT NODE         12   DOF  6
   INSTANCE: PART-3-1                                                                        
 LARGEST CORRECTION TO ROTATION     8.016E-38   AT NODE         12   DOF  6
   INSTANCE: PART-3-1                                                                        
          THE MOMENT    EQUILIBRIUM RESPONSE WAS LINEAR IN THIS INCREMENT

  NUMBER OF EQUATIONS =      3349     NUMBER OF RHS =    1
  NUMBER OF FLOATING PT. OPERATIONS =  8.04E+06

  USING THE DIRECT SOLVER WITH   4 PROCESSORS

     CHECK POINT   START OF SOLVER    

     CHECK POINT  END OF SOLVER       

       ELAPSED USER TIME (SEC)      =  6.00000E-02
       ELAPSED SYSTEM TIME (SEC)    =  2.00000E-02
       ELAPSED TOTAL CPU TIME (SEC) =  8.00000E-02
       ELAPSED WALLCLOCK TIME (SEC) =          0
  
     ASYNCHRONOUS TRACKING ELEMENT LOOP STARTED
  

               CONVERGENCE CHECKS FOR EQUILIBRIUM ITERATION     2

   MAX. PENETRATION ERROR 15.5109E-09  AT NODE PART-1-1.398 OF CONTACT PAIR 
   (ASSEMBLY_S_SURF-1,ASSEMBLY_SURF-5)
   MAX. CONTACT FORCE ERROR 505.149E-03   AT NODE PART-1-1.398 OF CONTACT PAIR 
   (ASSEMBLY_S_SURF-1,ASSEMBLY_SURF-5)
          THE CONTACT CONSTRAINTS HAVE CONVERGED.

 AVERAGE FORCE                       68.1       TIME AVG. FORCE        68.1    
 LARGEST RESIDUAL FORCE             -1.21       AT NODE        427   DOF  1
   INSTANCE: PART-1-1                                                                        
 LARGEST INCREMENT OF DISP.        -6.337E-04   AT NODE         64   DOF  2
   INSTANCE: PART-1-1                                                                        
 LARGEST CORRECTION TO DISP.       -5.531E-07   AT NODE        427   DOF  2
   INSTANCE: PART-1-1                                                                        
          FORCE     EQUILIBRIUM NOT ACHIEVED WITHIN TOLERANCE.

 AVERAGE MOMENT                     0.942       TIME AVG. MOMENT      0.942    
 ALL MOMENT    RESIDUALS ARE ZERO
 LARGEST INCREMENT OF ROTATION     -6.405E-35   AT NODE         12   DOF  6
   INSTANCE: PART-3-1                                                                        
 LARGEST CORRECTION TO ROTATION    -4.197E-38   AT NODE         12   DOF  6
   INSTANCE: PART-3-1                                                                        
          THE MOMENT    EQUILIBRIUM EQUATIONS HAVE CONVERGED

  NUMBER OF EQUATIONS =      3349     NUMBER OF RHS =    1
  NUMBER OF FLOATING PT. OPERATIONS =  8.04E+06

  USING THE DIRECT SOLVER WITH   4 PROCESSORS

     CHECK POINT   START OF SOLVER    

     CHECK POINT  END OF SOLVER       

       ELAPSED USER TIME (SEC)      =  6.00000E-02
       ELAPSED SYSTEM TIME (SEC)    =  2.00000E-02
       ELAPSED TOTAL CPU TIME (SEC) =  8.00000E-02
       ELAPSED WALLCLOCK TIME (SEC) =          0
  
     ASYNCHRONOUS TRACKING ELEMENT LOOP STARTED
  

               CONVERGENCE CHECKS FOR EQUILIBRIUM ITERATION     3

   MAX. PENETRATION ERROR -6.29487E-09 AT NODE PART-1-1.427 OF CONTACT PAIR 
   (ASSEMBLY_S_SURF-1,ASSEMBLY_SURF-5)
   MAX. CONTACT FORCE ERROR -204.676E-03   AT NODE PART-1-1.427 OF CONTACT PAIR 
   (ASSEMBLY_S_SURF-1,ASSEMBLY_SURF-5)
          THE CONTACT CONSTRAINTS HAVE CONVERGED.

 AVERAGE FORCE                       68.1       TIME AVG. FORCE        68.1    
 LARGEST RESIDUAL FORCE            -0.163       AT NODE        427   DOF  2
   INSTANCE: PART-1-1                                                                        
 LARGEST INCREMENT OF DISP.        -6.337E-04   AT NODE         64   DOF  2
   INSTANCE: PART-1-1                                                                        
 LARGEST CORRECTION TO DISP.       -1.847E-07   AT NODE        427   DOF  1
   INSTANCE: PART-1-1                                                                        
          THE FORCE     EQUILIBRIUM EQUATIONS HAVE CONVERGED

 AVERAGE MOMENT                     0.942       TIME AVG. MOMENT      0.942    
 ALL MOMENT    RESIDUALS ARE ZERO
 LARGEST INCREMENT OF ROTATION     -6.405E-35   AT NODE         12   DOF  6
   INSTANCE: PART-3-1                                                                        
 LARGEST CORRECTION TO ROTATION    -1.008E-39   AT NODE         12   DOF  6
   INSTANCE: PART-3-1                                                                        
          THE MOMENT    EQUILIBRIUM EQUATIONS HAVE CONVERGED

 ITERATION SUMMARY FOR THE INCREMENT:   6 TOTAL ITERATIONS, OF WHICH
   3 ARE SEVERE DISCONTINUITY ITERATIONS AND  3 ARE EQUILIBRIUM ITERATIONS.

 TIME INCREMENT COMPLETED  5.000E-02,  FRACTION OF STEP COMPLETED  5.000E-02
 STEP TIME COMPLETED       5.000E-02,  TOTAL TIME COMPLETED        5.000E-02
  
     ASYNCHRONOUS OUTPUT DATABASE FRAME FLUSH STARTED
  


  INCREMENT     2 STARTS. ATTEMPT NUMBER  1, TIME INCREMENT  5.000E-02
  
     ASYNCHRONOUS TRACKING ELEMENT LOOP STARTED
  

                    1 SEVERE DISCONTINUITIES OCCURRED DURING INCREMENT ATTEMPT INITIALIZATION.
                    1 POINTS CHANGED FROM STICKING TO SLIPPING

  NUMBER OF EQUATIONS =      3349     NUMBER OF RHS =    1
  NUMBER OF FLOATING PT. OPERATIONS =  8.04E+06

  USING THE DIRECT SOLVER WITH   4 PROCESSORS

     CHECK POINT   START OF SOLVER    

     CHECK POINT  END OF SOLVER       

       ELAPSED USER TIME (SEC)      =  7.00000E-02
       ELAPSED SYSTEM TIME (SEC)    =  2.00000E-02
       ELAPSED TOTAL CPU TIME (SEC) =  9.00000E-02
       ELAPSED WALLCLOCK TIME (SEC) =          0
  
     ASYNCHRONOUS TRACKING ELEMENT LOOP STARTED
  

                    5 SEVERE DISCONTINUITIES OCCURRED DURING THIS ITERATION.
                    2 POINTS CHANGED FROM OPEN TO CLOSED
                    1 POINTS CHANGED FROM SLIPPING TO STICKING
                    2 POINTS CHANGED FROM STICKING TO SLIPPING

               CONVERGENCE CHECKS FOR SEVERE DISCONTINUITY ITERATION     1

   MAX. PENETRATION ERROR 36.9743E-06  AT NODE PART-1-1.56 OF CONTACT PAIR 
   (ASSEMBLY_S_SURF-1,ASSEMBLY_SURF-5)
   MAX. CONTACT FORCE ERROR 1.20091E+03 AT NODE PART-1-1.56 OF CONTACT PAIR 
   (ASSEMBLY_S_SURF-1,ASSEMBLY_SURF-5)
          PENETRATION ERROR TOO LARGE COMPARED TO DISPLACEMENT INCREMENT.

 AVERAGE FORCE                       159.       TIME AVG. FORCE        114.    
 LARGEST RESIDUAL FORCE              623.       AT NODE         64   DOF  1
   INSTANCE: PART-1-1                                                                        
 LARGEST INCREMENT OF DISP.        -6.439E-04   AT NODE        398   DOF  2
   INSTANCE: PART-1-1                                                                        
 LARGEST CORRECTION TO DISP.       -1.843E-04   AT NODE        398   DOF  2
   INSTANCE: PART-1-1                                                                        
          FORCE     EQUILIBRIUM NOT ACHIEVED WITHIN TOLERANCE.

 AVERAGE MOMENT                      28.7       TIME AVG. MOMENT       14.8    
 ALL MOMENT    RESIDUALS ARE ZERO
 LARGEST INCREMENT OF ROTATION     -1.438E-34   AT NODE         12   DOF  6
   INSTANCE: PART-3-1                                                                        
 LARGEST CORRECTION TO ROTATION    -7.980E-35   AT NODE         12   DOF  6
   INSTANCE: PART-3-1                                                                        
          THE MOMENT    EQUILIBRIUM EQUATIONS HAVE CONVERGED

  NUMBER OF EQUATIONS =      3349     NUMBER OF RHS =    1
  NUMBER OF FLOATING PT. OPERATIONS =  8.15E+06

  USING THE DIRECT SOLVER WITH   4 PROCESSORS

     CHECK POINT   START OF SOLVER    

     CHECK POINT  END OF SOLVER       

       ELAPSED USER TIME (SEC)      =  5.00000E-02
       ELAPSED SYSTEM TIME (SEC)    =  2.00000E-02
       ELAPSED TOTAL CPU TIME (SEC) =  7.00000E-02
       ELAPSED WALLCLOCK TIME (SEC) =          0
  
     ASYNCHRONOUS TRACKING ELEMENT LOOP STARTED
  

               CONVERGENCE CHECKS FOR EQUILIBRIUM ITERATION     1

   MAX. PENETRATION ERROR -659.246E-09   AT NODE PART-1-1.56 OF CONTACT PAIR 
   (ASSEMBLY_S_SURF-1,ASSEMBLY_SURF-5)
   MAX. CONTACT FORCE ERROR -21.3276      AT NODE PART-1-1.56 OF CONTACT PAIR 
   (ASSEMBLY_S_SURF-1,ASSEMBLY_SURF-5)
          THE CONTACT CONSTRAINTS HAVE CONVERGED.

 AVERAGE FORCE                       162.       TIME AVG. FORCE        115.    
 LARGEST RESIDUAL FORCE             -30.4       AT NODE        398   DOF  2
   INSTANCE: PART-1-1                                                                        
 LARGEST INCREMENT OF DISP.        -6.373E-04   AT NODE        427   DOF  2
   INSTANCE: PART-1-1                                                                        
 LARGEST CORRECTION TO DISP.       -4.301E-05   AT NODE         56   DOF  2
   INSTANCE: PART-1-1                                                                        
          FORCE     EQUILIBRIUM NOT ACHIEVED WITHIN TOLERANCE.

 AVERAGE MOMENT                      20.9       TIME AVG. MOMENT       10.9    
 ALL MOMENT    RESIDUALS ARE ZERO
 LARGEST INCREMENT OF ROTATION     -1.466E-34   AT NODE         12   DOF  6
   INSTANCE: PART-3-1                                                                        
 LARGEST CORRECTION TO ROTATION    -2.792E-36   AT NODE         12   DOF  6
   INSTANCE: PART-3-1                                                                        
          THE MOMENT    EQUILIBRIUM RESPONSE WAS LINEAR IN THIS INCREMENT

  NUMBER OF EQUATIONS =      3349     NUMBER OF RHS =    1
  NUMBER OF FLOATING PT. OPERATIONS =  8.15E+06

  USING THE DIRECT SOLVER WITH   4 PROCESSORS

     CHECK POINT   START OF SOLVER    

     CHECK POINT  END OF SOLVER       

       ELAPSED USER TIME (SEC)      =  6.00000E-02
       ELAPSED SYSTEM TIME (SEC)    =  2.00000E-02
       ELAPSED TOTAL CPU TIME (SEC) =  8.00000E-02
       ELAPSED WALLCLOCK TIME (SEC) =          0
  
     ASYNCHRONOUS TRACKING ELEMENT LOOP STARTED
  

               CONVERGENCE CHECKS FOR EQUILIBRIUM ITERATION     2

   MAX. PENETRATION ERROR -47.5893E-09  AT NODE PART-1-1.56 OF CONTACT PAIR 
   (ASSEMBLY_S_SURF-1,ASSEMBLY_SURF-5)
   MAX. CONTACT FORCE ERROR -1.54035     AT NODE PART-1-1.56 OF CONTACT PAIR 
   (ASSEMBLY_S_SURF-1,ASSEMBLY_SURF-5)
          THE CONTACT CONSTRAINTS HAVE CONVERGED.

 AVERAGE FORCE                       162.       TIME AVG. FORCE        115.    
 LARGEST RESIDUAL FORCE             -1.90       AT NODE         56   DOF  1
   INSTANCE: PART-1-1                                                                        
 LARGEST INCREMENT OF DISP.        -6.369E-04   AT NODE        398   DOF  2
   INSTANCE: PART-1-1                                                                        
 LARGEST CORRECTION TO DISP.        1.407E-06   AT NODE         56   DOF  1
   INSTANCE: PART-1-1                                                                        
          FORCE     EQUILIBRIUM NOT ACHIEVED WITHIN TOLERANCE.

 AVERAGE MOMENT                      21.0       TIME AVG. MOMENT       11.0    
 ALL MOMENT    RESIDUALS ARE ZERO
 LARGEST INCREMENT OF ROTATION     -1.467E-34   AT NODE         12   DOF  6
   INSTANCE: PART-3-1                                                                        
 LARGEST CORRECTION TO ROTATION    -6.481E-38   AT NODE         12   DOF  6
   INSTANCE: PART-3-1                                                                        
          THE MOMENT    EQUILIBRIUM EQUATIONS HAVE CONVERGED

  NUMBER OF EQUATIONS =      3349     NUMBER OF RHS =    1
  NUMBER OF FLOATING PT. OPERATIONS =  8.15E+06

  USING THE DIRECT SOLVER WITH   4 PROCESSORS

     CHECK POINT   START OF SOLVER    

     CHECK POINT  END OF SOLVER       

       ELAPSED USER TIME (SEC)      =  5.00000E-02
       ELAPSED SYSTEM TIME (SEC)    =  2.00000E-02
       ELAPSED TOTAL CPU TIME (SEC) =  7.00000E-02
       ELAPSED WALLCLOCK TIME (SEC) =          0
  
     ASYNCHRONOUS TRACKING ELEMENT LOOP STARTED
  

               CONVERGENCE CHECKS FOR EQUILIBRIUM ITERATION     3

   MAX. PENETRATION ERROR 12.7585E-09  AT NODE PART-1-1.56 OF CONTACT PAIR 
   (ASSEMBLY_S_SURF-1,ASSEMBLY_SURF-5)
   MAX. CONTACT FORCE ERROR 412.958E-03   AT NODE PART-1-1.56 OF CONTACT PAIR 
   (ASSEMBLY_S_SURF-1,ASSEMBLY_SURF-5)
          THE CONTACT CONSTRAINTS HAVE CONVERGED.

 AVERAGE FORCE                       162.       TIME AVG. FORCE        115.    
 LARGEST RESIDUAL FORCE             0.431       AT NODE         56   DOF  2
   INSTANCE: PART-1-1                                                                        
 LARGEST INCREMENT OF DISP.        -6.370E-04   AT NODE        398   DOF  2
   INSTANCE: PART-1-1                                                                        
 LARGEST CORRECTION TO DISP.       -3.359E-07   AT NODE         56   DOF  1
   INSTANCE: PART-1-1                                                                        
          THE FORCE     EQUILIBRIUM EQUATIONS HAVE CONVERGED

 AVERAGE MOMENT                      21.0       TIME AVG. MOMENT       11.0    
 ALL MOMENT    RESIDUALS ARE ZERO
 LARGEST INCREMENT OF ROTATION     -1.467E-34   AT NODE         12   DOF  6
   INSTANCE: PART-3-1                                                                        
 LARGEST CORRECTION TO ROTATION    -4.284E-39   AT NODE         12   DOF  6
   INSTANCE: PART-3-1                                                                        
          THE MOMENT    EQUILIBRIUM EQUATIONS HAVE CONVERGED

 ITERATION SUMMARY FOR THE INCREMENT:   4 TOTAL ITERATIONS, OF WHICH
   1 ARE SEVERE DISCONTINUITY ITERATIONS AND  3 ARE EQUILIBRIUM ITERATIONS.

 TIME INCREMENT COMPLETED  5.000E-02,  FRACTION OF STEP COMPLETED  0.100    
 STEP TIME COMPLETED       0.100    ,  TOTAL TIME COMPLETED        0.100    
  
     ASYNCHRONOUS OUTPUT DATABASE FRAME FLUSH STARTED
  


  INCREMENT     3 STARTS. ATTEMPT NUMBER  1, TIME INCREMENT  5.000E-02
  
     ASYNCHRONOUS TRACKING ELEMENT LOOP STARTED
  

                    1 SEVERE DISCONTINUITIES OCCURRED DURING INCREMENT ATTEMPT INITIALIZATION.
                    1 POINTS CHANGED FROM STICKING TO SLIPPING

  NUMBER OF EQUATIONS =      3349     NUMBER OF RHS =    1
  NUMBER OF FLOATING PT. OPERATIONS =  8.15E+06

  USING THE DIRECT SOLVER WITH   4 PROCESSORS

     CHECK POINT   START OF SOLVER    

     CHECK POINT  END OF SOLVER       

       ELAPSED USER TIME (SEC)      =  7.00000E-02
       ELAPSED SYSTEM TIME (SEC)    =  1.00000E-02
       ELAPSED TOTAL CPU TIME (SEC) =  8.00000E-02
       ELAPSED WALLCLOCK TIME (SEC) =          0
  
     ASYNCHRONOUS TRACKING ELEMENT LOOP STARTED
  

                    5 SEVERE DISCONTINUITIES OCCURRED DURING THIS ITERATION.
                    2 POINTS CHANGED FROM OPEN TO CLOSED
                    1 POINTS CHANGED FROM SLIPPING TO STICKING
                    2 POINTS CHANGED FROM STICKING TO SLIPPING

               CONVERGENCE CHECKS FOR SEVERE DISCONTINUITY ITERATION     1

   MAX. PENETRATION ERROR 26.8276E-06  AT NODE PART-1-1.426 OF CONTACT PAIR 
   (ASSEMBLY_S_SURF-1,ASSEMBLY_SURF-5)
   MAX. CONTACT FORCE ERROR 866.567       AT NODE PART-1-1.426 OF CONTACT PAIR 
   (ASSEMBLY_S_SURF-1,ASSEMBLY_SURF-5)
          PENETRATION ERROR TOO LARGE COMPARED TO DISPLACEMENT INCREMENT.

 AVERAGE FORCE                       262.       TIME AVG. FORCE        164.    
 LARGEST RESIDUAL FORCE              110.       AT NODE         72   DOF  2
   INSTANCE: PART-1-1                                                                        
 LARGEST INCREMENT OF DISP.        -6.418E-04   AT NODE         72   DOF  2
   INSTANCE: PART-1-1                                                                        
 LARGEST CORRECTION TO DISP.       -1.133E-04   AT NODE         72   DOF  2
   INSTANCE: PART-1-1                                                                        
          FORCE     EQUILIBRIUM NOT ACHIEVED WITHIN TOLERANCE.

 AVERAGE MOMENT                      33.9       TIME AVG. MOMENT       18.6    
 ALL MOMENT    RESIDUALS ARE ZERO
 LARGEST INCREMENT OF ROTATION     -2.383E-34   AT NODE         12   DOF  6
   INSTANCE: PART-3-1                                                                        
 LARGEST CORRECTION TO ROTATION    -9.158E-35   AT NODE         12   DOF  6
   INSTANCE: PART-3-1                                                                        
          THE MOMENT    EQUILIBRIUM EQUATIONS HAVE CONVERGED

  NUMBER OF EQUATIONS =      3349     NUMBER OF RHS =    1
  NUMBER OF FLOATING PT. OPERATIONS =  8.15E+06

  USING THE DIRECT SOLVER WITH   4 PROCESSORS

     CHECK POINT   START OF SOLVER    

     CHECK POINT  END OF SOLVER       

       ELAPSED USER TIME (SEC)      =  6.00000E-02
       ELAPSED SYSTEM TIME (SEC)    =  2.00000E-02
       ELAPSED TOTAL CPU TIME (SEC) =  8.00000E-02
       ELAPSED WALLCLOCK TIME (SEC) =          0
  
     ASYNCHRONOUS TRACKING ELEMENT LOOP STARTED
  

               CONVERGENCE CHECKS FOR EQUILIBRIUM ITERATION     1

   MAX. PENETRATION ERROR -249.433E-09   AT NODE PART-1-1.426 OF CONTACT PAIR 
   (ASSEMBLY_S_SURF-1,ASSEMBLY_SURF-5)
   MAX. CONTACT FORCE ERROR -8.03477     AT NODE PART-1-1.426 OF CONTACT PAIR 
   (ASSEMBLY_S_SURF-1,ASSEMBLY_SURF-5)
          THE CONTACT CONSTRAINTS HAVE CONVERGED.

 AVERAGE FORCE                       263.       TIME AVG. FORCE        164.    
 LARGEST RESIDUAL FORCE             -16.9       AT NODE        426   DOF  1
   INSTANCE: PART-1-1                                                                        
 LARGEST INCREMENT OF DISP.        -6.377E-04   AT NODE         56   DOF  2
   INSTANCE: PART-1-1                                                                        
 LARGEST CORRECTION TO DISP.       -3.093E-05   AT NODE        426   DOF  2
   INSTANCE: PART-1-1                                                                        
          FORCE     EQUILIBRIUM NOT ACHIEVED WITHIN TOLERANCE.

 AVERAGE MOMENT                      26.7       TIME AVG. MOMENT       16.2    
 ALL MOMENT    RESIDUALS ARE ZERO
 LARGEST INCREMENT OF ROTATION     -2.404E-34   AT NODE         12   DOF  6
   INSTANCE: PART-3-1                                                                        
 LARGEST CORRECTION TO ROTATION    -2.090E-36   AT NODE         12   DOF  6
   INSTANCE: PART-3-1                                                                        
          THE MOMENT    EQUILIBRIUM RESPONSE WAS LINEAR IN THIS INCREMENT

  NUMBER OF EQUATIONS =      3349     NUMBER OF RHS =    1
  NUMBER OF FLOATING PT. OPERATIONS =  8.15E+06

  USING THE DIRECT SOLVER WITH   4 PROCESSORS

     CHECK POINT   START OF SOLVER    

     CHECK POINT  END OF SOLVER       

       ELAPSED USER TIME (SEC)      =  6.00000E-02
       ELAPSED SYSTEM TIME (SEC)    =  2.00000E-02
       ELAPSED TOTAL CPU TIME (SEC) =  8.00000E-02
       ELAPSED WALLCLOCK TIME (SEC) =          0
  
     ASYNCHRONOUS TRACKING ELEMENT LOOP STARTED
  

               CONVERGENCE CHECKS FOR EQUILIBRIUM ITERATION     2

   MAX. PENETRATION ERROR -50.1185E-09  AT NODE PART-1-1.426 OF CONTACT PAIR 
   (ASSEMBLY_S_SURF-1,ASSEMBLY_SURF-5)
   MAX. CONTACT FORCE ERROR -1.61496     AT NODE PART-1-1.426 OF CONTACT PAIR 
   (ASSEMBLY_S_SURF-1,ASSEMBLY_SURF-5)
          THE CONTACT CONSTRAINTS HAVE CONVERGED.

 AVERAGE FORCE                       263.       TIME AVG. FORCE        164.    
 LARGEST RESIDUAL FORCE             -1.22       AT NODE        426   DOF  2
   INSTANCE: PART-1-1                                                                        
 LARGEST INCREMENT OF DISP.        -6.378E-04   AT NODE         56   DOF  2
   INSTANCE: PART-1-1                                                                        
 LARGEST CORRECTION TO DISP.       -1.164E-06   AT NODE        426   DOF  1
   INSTANCE: PART-1-1                                                                        
          FORCE     EQUILIBRIUM NOT ACHIEVED WITHIN TOLERANCE.

 AVERAGE MOMENT                      26.7       TIME AVG. MOMENT       16.2    
 ALL MOMENT    RESIDUALS ARE ZERO
 LARGEST INCREMENT OF ROTATION     -2.404E-34   AT NODE         12   DOF  6
   INSTANCE: PART-3-1                                                                        
 LARGEST CORRECTION TO ROTATION    -1.594E-38   AT NODE         12   DOF  6
   INSTANCE: PART-3-1                                                                        
          THE MOMENT    EQUILIBRIUM EQUATIONS HAVE CONVERGED

  NUMBER OF EQUATIONS =      3349     NUMBER OF RHS =    1
  NUMBER OF FLOATING PT. OPERATIONS =  8.15E+06

  USING THE DIRECT SOLVER WITH   4 PROCESSORS

     CHECK POINT   START OF SOLVER    

     CHECK POINT  END OF SOLVER       

       ELAPSED USER TIME (SEC)      =  8.00000E-02
       ELAPSED SYSTEM TIME (SEC)    =  1.00000E-02
       ELAPSED TOTAL CPU TIME (SEC) =  9.00000E-02
       ELAPSED WALLCLOCK TIME (SEC) =          0
  
     ASYNCHRONOUS TRACKING ELEMENT LOOP STARTED
  

               CONVERGENCE CHECKS FOR EQUILIBRIUM ITERATION     3

   MAX. PENETRATION ERROR 1.31782E-09 AT NODE PART-1-1.426 OF CONTACT PAIR 
   (ASSEMBLY_S_SURF-1,ASSEMBLY_SURF-5)
   MAX. CONTACT FORCE ERROR 42.4640E-03  AT NODE PART-1-1.426 OF CONTACT PAIR 
   (ASSEMBLY_S_SURF-1,ASSEMBLY_SURF-5)
          THE CONTACT CONSTRAINTS HAVE CONVERGED.

 AVERAGE FORCE                       263.       TIME AVG. FORCE        164.    
 LARGEST RESIDUAL FORCE             0.107       AT NODE        426   DOF  1
   INSTANCE: PART-1-1                                                                        
 LARGEST INCREMENT OF DISP.        -6.378E-04   AT NODE         56   DOF  2
   INSTANCE: PART-1-1                                                                        
 LARGEST CORRECTION TO DISP.        5.499E-08   AT NODE        426   DOF  2
   INSTANCE: PART-1-1                                                                        
          THE FORCE     EQUILIBRIUM EQUATIONS HAVE CONVERGED

 AVERAGE MOMENT                      26.7       TIME AVG. MOMENT       16.2    
 ALL MOMENT    RESIDUALS ARE ZERO
 LARGEST INCREMENT OF ROTATION     -2.404E-34   AT NODE         12   DOF  6
   INSTANCE: PART-3-1                                                                        
 LARGEST CORRECTION TO ROTATION     3.692E-39   AT NODE         12   DOF  6
   INSTANCE: PART-3-1                                                                        
          THE MOMENT    EQUILIBRIUM EQUATIONS HAVE CONVERGED

 ITERATION SUMMARY FOR THE INCREMENT:   4 TOTAL ITERATIONS, OF WHICH
   1 ARE SEVERE DISCONTINUITY ITERATIONS AND  3 ARE EQUILIBRIUM ITERATIONS.

 TIME INCREMENT COMPLETED  5.000E-02,  FRACTION OF STEP COMPLETED  0.150    
 STEP TIME COMPLETED       0.150    ,  TOTAL TIME COMPLETED        0.150    
  
     ASYNCHRONOUS OUTPUT DATABASE FRAME FLUSH STARTED
  


  INCREMENT     4 STARTS. ATTEMPT NUMBER  1, TIME INCREMENT  5.000E-02
  
     ASYNCHRONOUS TRACKING ELEMENT LOOP STARTED
  

  NUMBER OF EQUATIONS =      3349     NUMBER OF RHS =    1
  NUMBER OF FLOATING PT. OPERATIONS =  8.15E+06

  USING THE DIRECT SOLVER WITH   4 PROCESSORS

     CHECK POINT   START OF SOLVER    

     CHECK POINT  END OF SOLVER       

       ELAPSED USER TIME (SEC)      =  7.00000E-02
       ELAPSED SYSTEM TIME (SEC)    =  1.00000E-02
       ELAPSED TOTAL CPU TIME (SEC) =  8.00000E-02
       ELAPSED WALLCLOCK TIME (SEC) =          1
  
     ASYNCHRONOUS TRACKING ELEMENT LOOP STARTED
  

               CONVERGENCE CHECKS FOR EQUILIBRIUM ITERATION     1

   MAX. PENETRATION ERROR -327.577E-09   AT NODE PART-1-1.399 OF CONTACT PAIR 
   (ASSEMBLY_S_SURF-1,ASSEMBLY_SURF-5)
   MAX. CONTACT FORCE ERROR -10.4283      AT NODE PART-1-1.399 OF CONTACT PAIR 
   (ASSEMBLY_S_SURF-1,ASSEMBLY_SURF-5)
          THE CONTACT CONSTRAINTS HAVE CONVERGED.

 AVERAGE FORCE                       375.       TIME AVG. FORCE        217.    
 LARGEST RESIDUAL FORCE              108.       AT NODE        426   DOF  2
   INSTANCE: PART-1-1                                                                        
 LARGEST INCREMENT OF DISP.        -6.418E-04   AT NODE        426   DOF  2
   INSTANCE: PART-1-1                                                                        
 LARGEST CORRECTION TO DISP.       -1.204E-04   AT NODE        399   DOF  2
   INSTANCE: PART-1-1                                                                        
          FORCE     EQUILIBRIUM NOT ACHIEVED WITHIN TOLERANCE.

 AVERAGE MOMENT                      38.1       TIME AVG. MOMENT       21.7    
 ALL MOMENT    RESIDUALS ARE ZERO
 LARGEST INCREMENT OF ROTATION     -3.434E-34   AT NODE         12   DOF  6
   INSTANCE: PART-3-1                                                                        
 LARGEST CORRECTION TO ROTATION    -1.030E-34   AT NODE         12   DOF  6
   INSTANCE: PART-3-1                                                                        
          THE MOMENT    EQUILIBRIUM RESPONSE WAS LINEAR IN THIS INCREMENT

  NUMBER OF EQUATIONS =      3349     NUMBER OF RHS =    1
  NUMBER OF FLOATING PT. OPERATIONS =  8.15E+06

  USING THE DIRECT SOLVER WITH   4 PROCESSORS

     CHECK POINT   START OF SOLVER    

     CHECK POINT  END OF SOLVER       

       ELAPSED USER TIME (SEC)      =  4.00000E-02
       ELAPSED SYSTEM TIME (SEC)    =  3.00000E-02
       ELAPSED TOTAL CPU TIME (SEC) =  7.00000E-02
       ELAPSED WALLCLOCK TIME (SEC) =          0
  
     ASYNCHRONOUS TRACKING ELEMENT LOOP STARTED
  

               CONVERGENCE CHECKS FOR EQUILIBRIUM ITERATION     2

   MAX. PENETRATION ERROR 9.12037E-09 AT NODE PART-1-1.426 OF CONTACT PAIR 
   (ASSEMBLY_S_SURF-1,ASSEMBLY_SURF-5)
   MAX. CONTACT FORCE ERROR 289.369E-03   AT NODE PART-1-1.426 OF CONTACT PAIR 
   (ASSEMBLY_S_SURF-1,ASSEMBLY_SURF-5)
          THE CONTACT CONSTRAINTS HAVE CONVERGED.

 AVERAGE FORCE                       375.       TIME AVG. FORCE        217.    
 LARGEST RESIDUAL FORCE             -5.31       AT NODE        399   DOF  2
   INSTANCE: PART-1-1                                                                        
 LARGEST INCREMENT OF DISP.        -6.410E-04   AT NODE        426   DOF  2
   INSTANCE: PART-1-1                                                                        
 LARGEST CORRECTION TO DISP.        2.946E-06   AT NODE        400   DOF  1
   INSTANCE: PART-1-1                                                                        
          FORCE     EQUILIBRIUM NOT ACHIEVED WITHIN TOLERANCE.

 AVERAGE MOMENT                      38.2       TIME AVG. MOMENT       21.7    
 ALL MOMENT    RESIDUALS ARE ZERO
 LARGEST INCREMENT OF ROTATION     -3.435E-34   AT NODE         12   DOF  6
   INSTANCE: PART-3-1                                                                        
 LARGEST CORRECTION TO ROTATION    -1.896E-37   AT NODE         12   DOF  6
   INSTANCE: PART-3-1                                                                        
          THE MOMENT    EQUILIBRIUM EQUATIONS HAVE CONVERGED

  NUMBER OF EQUATIONS =      3349     NUMBER OF RHS =    1
  NUMBER OF FLOATING PT. OPERATIONS =  8.15E+06

  USING THE DIRECT SOLVER WITH   4 PROCESSORS

     CHECK POINT   START OF SOLVER    

     CHECK POINT  END OF SOLVER       

       ELAPSED USER TIME (SEC)      =  7.00000E-02
       ELAPSED SYSTEM TIME (SEC)    =  1.00000E-02
       ELAPSED TOTAL CPU TIME (SEC) =  8.00000E-02
       ELAPSED WALLCLOCK TIME (SEC) =          0
  
     ASYNCHRONOUS TRACKING ELEMENT LOOP STARTED
  

               CONVERGENCE CHECKS FOR EQUILIBRIUM ITERATION     3

   MAX. PENETRATION ERROR 689.689E-12   AT NODE PART-1-1.426 OF CONTACT PAIR 
   (ASSEMBLY_S_SURF-1,ASSEMBLY_SURF-5)
   MAX. CONTACT FORCE ERROR 21.8824E-03  AT NODE PART-1-1.426 OF CONTACT PAIR 
   (ASSEMBLY_S_SURF-1,ASSEMBLY_SURF-5)
          THE CONTACT CONSTRAINTS HAVE CONVERGED.

 AVERAGE FORCE                       375.       TIME AVG. FORCE        217.    
 LARGEST RESIDUAL FORCE            -0.433       AT NODE        426   DOF  2
   INSTANCE: PART-1-1                                                                        
 LARGEST INCREMENT OF DISP.        -6.410E-04   AT NODE        426   DOF  2
   INSTANCE: PART-1-1                                                                        
 LARGEST CORRECTION TO DISP.       -2.453E-07   AT NODE        426   DOF  1
   INSTANCE: PART-1-1                                                                        
          THE FORCE     EQUILIBRIUM EQUATIONS HAVE CONVERGED

 AVERAGE MOMENT                      38.2       TIME AVG. MOMENT       21.7    
 ALL MOMENT    RESIDUALS ARE ZERO
 LARGEST INCREMENT OF ROTATION     -3.436E-34   AT NODE         12   DOF  6
   INSTANCE: PART-3-1                                                                        
 LARGEST CORRECTION TO ROTATION    -1.575E-38   AT NODE         12   DOF  6
   INSTANCE: PART-3-1                                                                        
          THE MOMENT    EQUILIBRIUM EQUATIONS HAVE CONVERGED

 ITERATION SUMMARY FOR THE INCREMENT:   3 TOTAL ITERATIONS, OF WHICH
   0 ARE SEVERE DISCONTINUITY ITERATIONS AND  3 ARE EQUILIBRIUM ITERATIONS.

 TIME INCREMENT COMPLETED  5.000E-02,  FRACTION OF STEP COMPLETED  0.200    
 STEP TIME COMPLETED       0.200    ,  TOTAL TIME COMPLETED        0.200    
  
     ASYNCHRONOUS OUTPUT DATABASE FRAME FLUSH STARTED
  


  INCREMENT     5 STARTS. ATTEMPT NUMBER  1, TIME INCREMENT  5.000E-02
  
     ASYNCHRONOUS TRACKING ELEMENT LOOP STARTED
  

  NUMBER OF EQUATIONS =      3349     NUMBER OF RHS =    1
  NUMBER OF FLOATING PT. OPERATIONS =  8.15E+06

  USING THE DIRECT SOLVER WITH   4 PROCESSORS

     CHECK POINT   START OF SOLVER    

     CHECK POINT  END OF SOLVER       

       ELAPSED USER TIME (SEC)      =  7.00000E-02
       ELAPSED SYSTEM TIME (SEC)    =  2.00000E-02
       ELAPSED TOTAL CPU TIME (SEC) =  9.00000E-02
       ELAPSED WALLCLOCK TIME (SEC) =          0
  
     ASYNCHRONOUS TRACKING ELEMENT LOOP STARTED
  

                    8 SEVERE DISCONTINUITIES OCCURRED DURING THIS ITERATION.
                    4 POINTS CHANGED FROM OPEN TO CLOSED
                    4 POINTS CHANGED FROM STICKING TO SLIPPING

               CONVERGENCE CHECKS FOR SEVERE DISCONTINUITY ITERATION     1

   MAX. PENETRATION ERROR 126.092E-06   AT NODE PART-1-1.425 OF CONTACT PAIR 
   (ASSEMBLY_S_SURF-1,ASSEMBLY_SURF-5)
   MAX. CONTACT FORCE ERROR 4.04613E+03 AT NODE PART-1-1.425 OF CONTACT PAIR 
   (ASSEMBLY_S_SURF-1,ASSEMBLY_SURF-5)
          PENETRATION ERROR TOO LARGE COMPARED TO DISPLACEMENT INCREMENT.

 AVERAGE FORCE                       489.       TIME AVG. FORCE        271.    
 LARGEST RESIDUAL FORCE             -23.2       AT NODE        425   DOF  2
   INSTANCE: PART-1-1                                                                        
 LARGEST INCREMENT OF DISP.        -6.394E-04   AT NODE        426   DOF  2
   INSTANCE: PART-1-1                                                                        
 LARGEST CORRECTION TO DISP.       -1.237E-05   AT NODE        426   DOF  1
   INSTANCE: PART-1-1                                                                        
          FORCE     EQUILIBRIUM NOT ACHIEVED WITHIN TOLERANCE.

 AVERAGE MOMENT                      49.9       TIME AVG. MOMENT       27.3    
 ALL MOMENT    RESIDUALS ARE ZERO
 LARGEST INCREMENT OF ROTATION     -4.488E-34   AT NODE         12   DOF  6
   INSTANCE: PART-3-1                                                                        
 LARGEST CORRECTION TO ROTATION    -1.053E-34   AT NODE         12   DOF  6
   INSTANCE: PART-3-1                                                                        
          THE MOMENT    EQUILIBRIUM EQUATIONS HAVE CONVERGED

  NUMBER OF EQUATIONS =      3349     NUMBER OF RHS =    1
  NUMBER OF FLOATING PT. OPERATIONS =  8.34E+06

  USING THE DIRECT SOLVER WITH   4 PROCESSORS

     CHECK POINT   START OF SOLVER    

     CHECK POINT  END OF SOLVER       

       ELAPSED USER TIME (SEC)      =  6.00000E-02
       ELAPSED SYSTEM TIME (SEC)    =  3.00000E-02
       ELAPSED TOTAL CPU TIME (SEC) =  9.00000E-02
       ELAPSED WALLCLOCK TIME (SEC) =          0
  
     ASYNCHRONOUS TRACKING ELEMENT LOOP STARTED
  

                    2 SEVERE DISCONTINUITIES OCCURRED DURING THIS ITERATION.
                    2 POINTS CHANGED FROM CLOSED TO OPEN

               CONVERGENCE CHECKS FOR SEVERE DISCONTINUITY ITERATION     2

   MAX. PENETRATION ERROR -1.47092E-06 AT NODE PART-1-1.425 OF CONTACT PAIR 
   (ASSEMBLY_S_SURF-1,ASSEMBLY_SURF-5)
   MAX. CONTACT FORCE ERROR -1.40030E+03 AT NODE PART-1-1.57 OF CONTACT PAIR 
   (ASSEMBLY_S_SURF-1,ASSEMBLY_SURF-5)
          THE ESTIMATED CONTACT FORCE ERROR IS OUTSIDE OF CONVERGENCE TOLERANCES.

 AVERAGE FORCE                       494.       TIME AVG. FORCE        272.    
 LARGEST RESIDUAL FORCE            -1.024E+03   AT NODE         57   DOF  2
   INSTANCE: PART-1-1                                                                        
 LARGEST INCREMENT OF DISP.        -6.466E-04   AT NODE        425   DOF  2
   INSTANCE: PART-1-1                                                                        
 LARGEST CORRECTION TO DISP.       -1.514E-04   AT NODE        425   DOF  2
   INSTANCE: PART-1-1                                                                        
          FORCE     EQUILIBRIUM NOT ACHIEVED WITHIN TOLERANCE.

 AVERAGE MOMENT                      42.8       TIME AVG. MOMENT       25.9    
 ALL MOMENT    RESIDUALS ARE ZERO
 LARGEST INCREMENT OF ROTATION     -4.546E-34   AT NODE         12   DOF  6
   INSTANCE: PART-3-1                                                                        
 LARGEST CORRECTION TO ROTATION    -5.787E-36   AT NODE         12   DOF  6
   INSTANCE: PART-3-1                                                                        
          THE MOMENT    EQUILIBRIUM EQUATIONS HAVE CONVERGED

  NUMBER OF EQUATIONS =      3349     NUMBER OF RHS =    1
  NUMBER OF FLOATING PT. OPERATIONS =  8.23E+06

  USING THE DIRECT SOLVER WITH   4 PROCESSORS

     CHECK POINT   START OF SOLVER    

     CHECK POINT  END OF SOLVER       

       ELAPSED USER TIME (SEC)      =  6.00000E-02
       ELAPSED SYSTEM TIME (SEC)    =  1.00000E-02
       ELAPSED TOTAL CPU TIME (SEC) =  7.00000E-02
       ELAPSED WALLCLOCK TIME (SEC) =          0
  
     ASYNCHRONOUS TRACKING ELEMENT LOOP STARTED
  

               CONVERGENCE CHECKS FOR EQUILIBRIUM ITERATION     1

   MAX. PENETRATION ERROR 65.9072E-09  AT NODE PART-1-1.425 OF CONTACT PAIR 
   (ASSEMBLY_S_SURF-1,ASSEMBLY_SURF-5)
   MAX. CONTACT FORCE ERROR 2.09261     AT NODE PART-1-1.425 OF CONTACT PAIR 
   (ASSEMBLY_S_SURF-1,ASSEMBLY_SURF-5)
          THE CONTACT CONSTRAINTS HAVE CONVERGED.

 AVERAGE FORCE                       496.       TIME AVG. FORCE        273.    
 LARGEST RESIDUAL FORCE             -12.5       AT NODE        332   DOF  1
   INSTANCE: PART-1-1                                                                        
 LARGEST INCREMENT OF DISP.        -6.378E-04   AT NODE        425   DOF  2
   INSTANCE: PART-1-1                                                                        
 LARGEST CORRECTION TO DISP.       -6.366E-05   AT NODE         57   DOF  2
   INSTANCE: PART-1-1                                                                        
          FORCE     EQUILIBRIUM NOT ACHIEVED WITHIN TOLERANCE.

 AVERAGE MOMENT                      41.7       TIME AVG. MOMENT       25.7    
 ALL MOMENT    RESIDUALS ARE ZERO
 LARGEST INCREMENT OF ROTATION     -4.581E-34   AT NODE         12   DOF  6
   INSTANCE: PART-3-1                                                                        
 LARGEST CORRECTION TO ROTATION    -3.515E-36   AT NODE         12   DOF  6
   INSTANCE: PART-3-1                                                                        
          THE MOMENT    EQUILIBRIUM RESPONSE WAS LINEAR IN THIS INCREMENT

  NUMBER OF EQUATIONS =      3349     NUMBER OF RHS =    1
  NUMBER OF FLOATING PT. OPERATIONS =  8.23E+06

  USING THE DIRECT SOLVER WITH   4 PROCESSORS

     CHECK POINT   START OF SOLVER    

     CHECK POINT  END OF SOLVER       

       ELAPSED USER TIME (SEC)      =  7.00000E-02
       ELAPSED SYSTEM TIME (SEC)    =  2.00000E-02
       ELAPSED TOTAL CPU TIME (SEC) =  9.00000E-02
       ELAPSED WALLCLOCK TIME (SEC) =          0
  
     ASYNCHRONOUS TRACKING ELEMENT LOOP STARTED
  

               CONVERGENCE CHECKS FOR EQUILIBRIUM ITERATION     2

   MAX. PENETRATION ERROR 22.2182E-09  AT NODE PART-1-1.425 OF CONTACT PAIR 
   (ASSEMBLY_S_SURF-1,ASSEMBLY_SURF-5)
   MAX. CONTACT FORCE ERROR 705.411E-03   AT NODE PART-1-1.425 OF CONTACT PAIR 
   (ASSEMBLY_S_SURF-1,ASSEMBLY_SURF-5)
          THE CONTACT CONSTRAINTS HAVE CONVERGED.

 AVERAGE FORCE                       496.       TIME AVG. FORCE        273.    
 LARGEST RESIDUAL FORCE              2.93       AT NODE        425   DOF  2
   INSTANCE: PART-1-1                                                                        
 LARGEST INCREMENT OF DISP.        -6.379E-04   AT NODE        425   DOF  2
   INSTANCE: PART-1-1                                                                        
 LARGEST CORRECTION TO DISP.        1.474E-06   AT NODE        425   DOF  1
   INSTANCE: PART-1-1                                                                        
          FORCE     EQUILIBRIUM NOT ACHIEVED WITHIN TOLERANCE.

 AVERAGE MOMENT                      41.6       TIME AVG. MOMENT       25.7    
 ALL MOMENT    RESIDUALS ARE ZERO
 LARGEST INCREMENT OF ROTATION     -4.581E-34   AT NODE         12   DOF  6
   INSTANCE: PART-3-1                                                                        
 LARGEST CORRECTION TO ROTATION     5.158E-39   AT NODE         12   DOF  6
   INSTANCE: PART-3-1                                                                        
          THE MOMENT    EQUILIBRIUM EQUATIONS HAVE CONVERGED

  NUMBER OF EQUATIONS =      3349     NUMBER OF RHS =    1
  NUMBER OF FLOATING PT. OPERATIONS =  8.23E+06

  USING THE DIRECT SOLVER WITH   4 PROCESSORS

     CHECK POINT   START OF SOLVER    

     CHECK POINT  END OF SOLVER       

       ELAPSED USER TIME (SEC)      =  5.00000E-02
       ELAPSED SYSTEM TIME (SEC)    =  1.00000E-02
       ELAPSED TOTAL CPU TIME (SEC) =  6.00000E-02
       ELAPSED WALLCLOCK TIME (SEC) =          0
  
     ASYNCHRONOUS TRACKING ELEMENT LOOP STARTED
  

               CONVERGENCE CHECKS FOR EQUILIBRIUM ITERATION     3

   MAX. PENETRATION ERROR 1.36810E-09 AT NODE PART-1-1.425 OF CONTACT PAIR 
   (ASSEMBLY_S_SURF-1,ASSEMBLY_SURF-5)
   MAX. CONTACT FORCE ERROR 43.4363E-03  AT NODE PART-1-1.425 OF CONTACT PAIR 
   (ASSEMBLY_S_SURF-1,ASSEMBLY_SURF-5)
          THE CONTACT CONSTRAINTS HAVE CONVERGED.

 AVERAGE FORCE                       496.       TIME AVG. FORCE        273.    
 LARGEST RESIDUAL FORCE            -0.187       AT NODE        425   DOF  1
   INSTANCE: PART-1-1                                                                        
 LARGEST INCREMENT OF DISP.        -6.379E-04   AT NODE        425   DOF  2
   INSTANCE: PART-1-1                                                                        
 LARGEST CORRECTION TO DISP.        9.439E-08   AT NODE        425   DOF  1
   INSTANCE: PART-1-1                                                                        
          THE FORCE     EQUILIBRIUM EQUATIONS HAVE CONVERGED

 AVERAGE MOMENT                      41.6       TIME AVG. MOMENT       25.7    
 ALL MOMENT    RESIDUALS ARE ZERO
 LARGEST INCREMENT OF ROTATION     -4.581E-34   AT NODE         12   DOF  6
   INSTANCE: PART-3-1                                                                        
 LARGEST CORRECTION TO ROTATION     6.190E-39   AT NODE         12   DOF  6
   INSTANCE: PART-3-1                                                                        
          THE MOMENT    EQUILIBRIUM EQUATIONS HAVE CONVERGED

 ITERATION SUMMARY FOR THE INCREMENT:   5 TOTAL ITERATIONS, OF WHICH
   2 ARE SEVERE DISCONTINUITY ITERATIONS AND  3 ARE EQUILIBRIUM ITERATIONS.

 TIME INCREMENT COMPLETED  5.000E-02,  FRACTION OF STEP COMPLETED  0.250    
 STEP TIME COMPLETED       0.250    ,  TOTAL TIME COMPLETED        0.250    
  
     ASYNCHRONOUS OUTPUT DATABASE FRAME FLUSH STARTED
  


  INCREMENT     6 STARTS. ATTEMPT NUMBER  1, TIME INCREMENT  5.000E-02
  
     ASYNCHRONOUS TRACKING ELEMENT LOOP STARTED
  

  NUMBER OF EQUATIONS =      3349     NUMBER OF RHS =    1
  NUMBER OF FLOATING PT. OPERATIONS =  8.23E+06

  USING THE DIRECT SOLVER WITH   4 PROCESSORS

     CHECK POINT   START OF SOLVER    

     CHECK POINT  END OF SOLVER       

       ELAPSED USER TIME (SEC)      =  6.00000E-02
       ELAPSED SYSTEM TIME (SEC)    =  2.00000E-02
       ELAPSED TOTAL CPU TIME (SEC) =  8.00000E-02
       ELAPSED WALLCLOCK TIME (SEC) =          0
  
     ASYNCHRONOUS TRACKING ELEMENT LOOP STARTED
  

                    4 SEVERE DISCONTINUITIES OCCURRED DURING THIS ITERATION.
                    2 POINTS CHANGED FROM OPEN TO CLOSED
                    2 POINTS CHANGED FROM STICKING TO SLIPPING

               CONVERGENCE CHECKS FOR SEVERE DISCONTINUITY ITERATION     1

   MAX. PENETRATION ERROR 80.2773E-06  AT NODE PART-1-1.71 OF CONTACT PAIR 
   (ASSEMBLY_S_SURF-1,ASSEMBLY_SURF-5)
   MAX. CONTACT FORCE ERROR 2.57976E+03 AT NODE PART-1-1.71 OF CONTACT PAIR 
   (ASSEMBLY_S_SURF-1,ASSEMBLY_SURF-5)
          PENETRATION ERROR TOO LARGE COMPARED TO DISPLACEMENT INCREMENT.

 AVERAGE FORCE                       622.       TIME AVG. FORCE        331.    
 LARGEST RESIDUAL FORCE             -21.2       AT NODE        425   DOF  2
   INSTANCE: PART-1-1                                                                        
 LARGEST INCREMENT OF DISP.        -6.399E-04   AT NODE        425   DOF  2
   INSTANCE: PART-1-1                                                                        
 LARGEST CORRECTION TO DISP.       -1.268E-05   AT NODE        425   DOF  1
   INSTANCE: PART-1-1                                                                        
          FORCE     EQUILIBRIUM NOT ACHIEVED WITHIN TOLERANCE.

 AVERAGE MOMENT                      52.4       TIME AVG. MOMENT       30.1    
 ALL MOMENT    RESIDUALS ARE ZERO
 LARGEST INCREMENT OF ROTATION     -5.754E-34   AT NODE         12   DOF  6
   INSTANCE: PART-3-1                                                                        
 LARGEST CORRECTION TO ROTATION    -1.172E-34   AT NODE         12   DOF  6
   INSTANCE: PART-3-1                                                                        
          THE MOMENT    EQUILIBRIUM EQUATIONS HAVE CONVERGED

  NUMBER OF EQUATIONS =      3349     NUMBER OF RHS =    1
  NUMBER OF FLOATING PT. OPERATIONS =  8.34E+06

  USING THE DIRECT SOLVER WITH   4 PROCESSORS

     CHECK POINT   START OF SOLVER    

     CHECK POINT  END OF SOLVER       

       ELAPSED USER TIME (SEC)      =  6.00000E-02
       ELAPSED SYSTEM TIME (SEC)    =  1.00000E-02
       ELAPSED TOTAL CPU TIME (SEC) =  7.00000E-02
       ELAPSED WALLCLOCK TIME (SEC) =          0
  
     ASYNCHRONOUS TRACKING ELEMENT LOOP STARTED
  

               CONVERGENCE CHECKS FOR EQUILIBRIUM ITERATION     1

   MAX. PENETRATION ERROR -658.199E-09   AT NODE PART-1-1.71 OF CONTACT PAIR 
   (ASSEMBLY_S_SURF-1,ASSEMBLY_SURF-5)
   MAX. CONTACT FORCE ERROR -20.9688      AT NODE PART-1-1.71 OF CONTACT PAIR 
   (ASSEMBLY_S_SURF-1,ASSEMBLY_SURF-5)
          THE CONTACT CONSTRAINTS HAVE CONVERGED.

 AVERAGE FORCE                       626.       TIME AVG. FORCE        332.    
 LARGEST RESIDUAL FORCE              60.6       AT NODE         71   DOF  2
   INSTANCE: PART-1-1                                                                        
 LARGEST INCREMENT OF DISP.        -6.313E-04   AT NODE        400   DOF  2
   INSTANCE: PART-1-1                                                                        
 LARGEST CORRECTION TO DISP.       -9.216E-05   AT NODE         71   DOF  2
   INSTANCE: PART-1-1                                                                        
          FORCE     EQUILIBRIUM NOT ACHIEVED WITHIN TOLERANCE.

 AVERAGE MOMENT                      44.7       TIME AVG. MOMENT       28.8    
 ALL MOMENT    RESIDUALS ARE ZERO
 LARGEST INCREMENT OF ROTATION     -5.812E-34   AT NODE         12   DOF  6
   INSTANCE: PART-3-1                                                                        
 LARGEST CORRECTION TO ROTATION    -5.866E-36   AT NODE         12   DOF  6
   INSTANCE: PART-3-1                                                                        
          THE MOMENT    EQUILIBRIUM RESPONSE WAS LINEAR IN THIS INCREMENT

  NUMBER OF EQUATIONS =      3349     NUMBER OF RHS =    1
  NUMBER OF FLOATING PT. OPERATIONS =  8.34E+06

  USING THE DIRECT SOLVER WITH   4 PROCESSORS

     CHECK POINT   START OF SOLVER    

     CHECK POINT  END OF SOLVER       

       ELAPSED USER TIME (SEC)      =  7.00000E-02
       ELAPSED SYSTEM TIME (SEC)    =  3.00000E-02
       ELAPSED TOTAL CPU TIME (SEC) =  0.10000    
       ELAPSED WALLCLOCK TIME (SEC) =          0
  
     ASYNCHRONOUS TRACKING ELEMENT LOOP STARTED
  

               CONVERGENCE CHECKS FOR EQUILIBRIUM ITERATION     2

   MAX. PENETRATION ERROR -97.1802E-09  AT NODE PART-1-1.71 OF CONTACT PAIR 
   (ASSEMBLY_S_SURF-1,ASSEMBLY_SURF-5)
   MAX. CONTACT FORCE ERROR -3.36861     AT NODE PART-1-1.57 OF CONTACT PAIR 
   (ASSEMBLY_S_SURF-1,ASSEMBLY_SURF-5)
          THE CONTACT CONSTRAINTS HAVE CONVERGED.

 AVERAGE FORCE                       626.       TIME AVG. FORCE        332.    
 LARGEST RESIDUAL FORCE             -4.50       AT NODE         57   DOF  2
   INSTANCE: PART-1-1                                                                        
 LARGEST INCREMENT OF DISP.        -6.313E-04   AT NODE        400   DOF  2
   INSTANCE: PART-1-1                                                                        
 LARGEST CORRECTION TO DISP.        2.610E-06   AT NODE         57   DOF  1
   INSTANCE: PART-1-1                                                                        
          FORCE     EQUILIBRIUM NOT ACHIEVED WITHIN TOLERANCE.

 AVERAGE MOMENT                      44.7       TIME AVG. MOMENT       28.9    
 ALL MOMENT    RESIDUALS ARE ZERO
 LARGEST INCREMENT OF ROTATION     -5.813E-34   AT NODE         12   DOF  6
   INSTANCE: PART-3-1                                                                        
 LARGEST CORRECTION TO ROTATION    -8.579E-38   AT NODE         12   DOF  6
   INSTANCE: PART-3-1                                                                        
          THE MOMENT    EQUILIBRIUM EQUATIONS HAVE CONVERGED

  NUMBER OF EQUATIONS =      3349     NUMBER OF RHS =    1
  NUMBER OF FLOATING PT. OPERATIONS =  8.34E+06

  USING THE DIRECT SOLVER WITH   4 PROCESSORS

     CHECK POINT   START OF SOLVER    

     CHECK POINT  END OF SOLVER       

       ELAPSED USER TIME (SEC)      =  7.00000E-02
       ELAPSED SYSTEM TIME (SEC)    =  1.00000E-02
       ELAPSED TOTAL CPU TIME (SEC) =  8.00000E-02
       ELAPSED WALLCLOCK TIME (SEC) =          0
  
     ASYNCHRONOUS TRACKING ELEMENT LOOP STARTED
  

               CONVERGENCE CHECKS FOR EQUILIBRIUM ITERATION     3

   MAX. PENETRATION ERROR -12.0169E-09  AT NODE PART-1-1.71 OF CONTACT PAIR 
   (ASSEMBLY_S_SURF-1,ASSEMBLY_SURF-5)
   MAX. CONTACT FORCE ERROR -383.164E-03   AT NODE PART-1-1.71 OF CONTACT PAIR 
   (ASSEMBLY_S_SURF-1,ASSEMBLY_SURF-5)
          THE CONTACT CONSTRAINTS HAVE CONVERGED.

 AVERAGE FORCE                       626.       TIME AVG. FORCE        332.    
 LARGEST RESIDUAL FORCE            -0.635       AT NODE         71   DOF  2
   INSTANCE: PART-1-1                                                                        
 LARGEST INCREMENT OF DISP.        -6.313E-04   AT NODE        400   DOF  2
   INSTANCE: PART-1-1                                                                        
 LARGEST CORRECTION TO DISP.       -3.202E-07   AT NODE         71   DOF  1
   INSTANCE: PART-1-1                                                                        
          THE FORCE     EQUILIBRIUM EQUATIONS HAVE CONVERGED

 AVERAGE MOMENT                      44.7       TIME AVG. MOMENT       28.9    
 ALL MOMENT    RESIDUALS ARE ZERO
 LARGEST INCREMENT OF ROTATION     -5.813E-34   AT NODE         12   DOF  6
   INSTANCE: PART-3-1                                                                        
 LARGEST CORRECTION TO ROTATION    -7.882E-39   AT NODE         12   DOF  6
   INSTANCE: PART-3-1                                                                        
          THE MOMENT    EQUILIBRIUM EQUATIONS HAVE CONVERGED

 ITERATION SUMMARY FOR THE INCREMENT:   4 TOTAL ITERATIONS, OF WHICH
   1 ARE SEVERE DISCONTINUITY ITERATIONS AND  3 ARE EQUILIBRIUM ITERATIONS.

 TIME INCREMENT COMPLETED  5.000E-02,  FRACTION OF STEP COMPLETED  0.300    
 STEP TIME COMPLETED       0.300    ,  TOTAL TIME COMPLETED        0.300    
  
     ASYNCHRONOUS OUTPUT DATABASE FRAME FLUSH STARTED
  


  INCREMENT     7 STARTS. ATTEMPT NUMBER  1, TIME INCREMENT  5.000E-02
  
     ASYNCHRONOUS TRACKING ELEMENT LOOP STARTED
  

  NUMBER OF EQUATIONS =      3349     NUMBER OF RHS =    1
  NUMBER OF FLOATING PT. OPERATIONS =  8.34E+06

  USING THE DIRECT SOLVER WITH   4 PROCESSORS

     CHECK POINT   START OF SOLVER    

     CHECK POINT  END OF SOLVER       

       ELAPSED USER TIME (SEC)      =  7.00000E-02
       ELAPSED SYSTEM TIME (SEC)    =  1.00000E-02
       ELAPSED TOTAL CPU TIME (SEC) =  8.00000E-02
       ELAPSED WALLCLOCK TIME (SEC) =          0
  
     ASYNCHRONOUS TRACKING ELEMENT LOOP STARTED
  

                    5 SEVERE DISCONTINUITIES OCCURRED DURING THIS ITERATION.
                    2 POINTS CHANGED FROM OPEN TO CLOSED
                    1 POINTS CHANGED FROM SLIPPING TO STICKING
                    2 POINTS CHANGED FROM STICKING TO SLIPPING

               CONVERGENCE CHECKS FOR SEVERE DISCONTINUITY ITERATION     1

   MAX. PENETRATION ERROR 17.8731E-06  AT NODE PART-1-1.424 OF CONTACT PAIR 
   (ASSEMBLY_S_SURF-1,ASSEMBLY_SURF-5)
   MAX. CONTACT FORCE ERROR 575.655       AT NODE PART-1-1.424 OF CONTACT PAIR 
   (ASSEMBLY_S_SURF-1,ASSEMBLY_SURF-5)
          PENETRATION ERROR TOO LARGE COMPARED TO DISPLACEMENT INCREMENT.

 AVERAGE FORCE                       763.       TIME AVG. FORCE        393.    
 LARGEST RESIDUAL FORCE              36.3       AT NODE         57   DOF  2
   INSTANCE: PART-1-1                                                                        
 LARGEST INCREMENT OF DISP.        -6.409E-04   AT NODE         71   DOF  2
   INSTANCE: PART-1-1                                                                        
 LARGEST CORRECTION TO DISP.       -6.163E-05   AT NODE         57   DOF  2
   INSTANCE: PART-1-1                                                                        
          FORCE     EQUILIBRIUM NOT ACHIEVED WITHIN TOLERANCE.

 AVERAGE MOMENT                      54.7       TIME AVG. MOMENT       32.6    
 ALL MOMENT    RESIDUALS ARE ZERO
 LARGEST INCREMENT OF ROTATION     -7.109E-34   AT NODE         12   DOF  6
   INSTANCE: PART-3-1                                                                        
 LARGEST CORRECTION TO ROTATION    -1.296E-34   AT NODE         12   DOF  6
   INSTANCE: PART-3-1                                                                        
          THE MOMENT    EQUILIBRIUM EQUATIONS HAVE CONVERGED

  NUMBER OF EQUATIONS =      3349     NUMBER OF RHS =    1
  NUMBER OF FLOATING PT. OPERATIONS =  8.34E+06

  USING THE DIRECT SOLVER WITH   4 PROCESSORS

     CHECK POINT   START OF SOLVER    

     CHECK POINT  END OF SOLVER       

       ELAPSED USER TIME (SEC)      =  6.00000E-02
       ELAPSED SYSTEM TIME (SEC)    =  3.00000E-02
       ELAPSED TOTAL CPU TIME (SEC) =  9.00000E-02
       ELAPSED WALLCLOCK TIME (SEC) =          0
  
     ASYNCHRONOUS TRACKING ELEMENT LOOP STARTED
  

               CONVERGENCE CHECKS FOR EQUILIBRIUM ITERATION     1

   MAX. PENETRATION ERROR -236.120E-09   AT NODE PART-1-1.401 OF CONTACT PAIR 
   (ASSEMBLY_S_SURF-1,ASSEMBLY_SURF-5)
   MAX. CONTACT FORCE ERROR -7.59772     AT NODE PART-1-1.401 OF CONTACT PAIR 
   (ASSEMBLY_S_SURF-1,ASSEMBLY_SURF-5)
          THE CONTACT CONSTRAINTS HAVE CONVERGED.

 AVERAGE FORCE                       763.       TIME AVG. FORCE        393.    
 LARGEST RESIDUAL FORCE             -12.4       AT NODE        424   DOF  1
   INSTANCE: PART-1-1                                                                        
 LARGEST INCREMENT OF DISP.        -6.393E-04   AT NODE         57   DOF  2
   INSTANCE: PART-1-1                                                                        
 LARGEST CORRECTION TO DISP.       -2.052E-05   AT NODE        424   DOF  2
   INSTANCE: PART-1-1                                                                        
          FORCE     EQUILIBRIUM NOT ACHIEVED WITHIN TOLERANCE.

 AVERAGE MOMENT                      47.5       TIME AVG. MOMENT       31.5    
 ALL MOMENT    RESIDUALS ARE ZERO
 LARGEST INCREMENT OF ROTATION     -7.125E-34   AT NODE         12   DOF  6
   INSTANCE: PART-3-1                                                                        
 LARGEST CORRECTION TO ROTATION    -1.560E-36   AT NODE         12   DOF  6
   INSTANCE: PART-3-1                                                                        
          THE MOMENT    EQUILIBRIUM RESPONSE WAS LINEAR IN THIS INCREMENT

  NUMBER OF EQUATIONS =      3349     NUMBER OF RHS =    1
  NUMBER OF FLOATING PT. OPERATIONS =  8.34E+06

  USING THE DIRECT SOLVER WITH   4 PROCESSORS

     CHECK POINT   START OF SOLVER    

     CHECK POINT  END OF SOLVER       

       ELAPSED USER TIME (SEC)      =  6.00000E-02
       ELAPSED SYSTEM TIME (SEC)    =  2.00000E-02
       ELAPSED TOTAL CPU TIME (SEC) =  8.00000E-02
       ELAPSED WALLCLOCK TIME (SEC) =          0
  
     ASYNCHRONOUS TRACKING ELEMENT LOOP STARTED
  

               CONVERGENCE CHECKS FOR EQUILIBRIUM ITERATION     2

   MAX. PENETRATION ERROR -49.0010E-09  AT NODE PART-1-1.424 OF CONTACT PAIR 
   (ASSEMBLY_S_SURF-1,ASSEMBLY_SURF-5)
   MAX. CONTACT FORCE ERROR -1.57485     AT NODE PART-1-1.424 OF CONTACT PAIR 
   (ASSEMBLY_S_SURF-1,ASSEMBLY_SURF-5)
          THE CONTACT CONSTRAINTS HAVE CONVERGED.

 AVERAGE FORCE                       763.       TIME AVG. FORCE        393.    
 LARGEST RESIDUAL FORCE             -1.01       AT NODE        424   DOF  2
   INSTANCE: PART-1-1                                                                        
 LARGEST INCREMENT OF DISP.        -6.393E-04   AT NODE         57   DOF  2
   INSTANCE: PART-1-1                                                                        
 LARGEST CORRECTION TO DISP.       -7.949E-07   AT NODE        424   DOF  1
   INSTANCE: PART-1-1                                                                        
          THE FORCE     EQUILIBRIUM EQUATIONS HAVE CONVERGED

 AVERAGE MOMENT                      47.5       TIME AVG. MOMENT       31.5    
 ALL MOMENT    RESIDUALS ARE ZERO
 LARGEST INCREMENT OF ROTATION     -7.125E-34   AT NODE         12   DOF  6
   INSTANCE: PART-3-1                                                                        
 LARGEST CORRECTION TO ROTATION    -1.667E-38   AT NODE         12   DOF  6
   INSTANCE: PART-3-1                                                                        
          THE MOMENT    EQUILIBRIUM EQUATIONS HAVE CONVERGED

 ITERATION SUMMARY FOR THE INCREMENT:   3 TOTAL ITERATIONS, OF WHICH
   1 ARE SEVERE DISCONTINUITY ITERATIONS AND  2 ARE EQUILIBRIUM ITERATIONS.

 TIME INCREMENT COMPLETED  5.000E-02,  FRACTION OF STEP COMPLETED  0.350    
 STEP TIME COMPLETED       0.350    ,  TOTAL TIME COMPLETED        0.350    
  
     ASYNCHRONOUS OUTPUT DATABASE FRAME FLUSH STARTED
  


  INCREMENT     8 STARTS. ATTEMPT NUMBER  1, TIME INCREMENT  5.000E-02
  
     ASYNCHRONOUS TRACKING ELEMENT LOOP STARTED
  

  NUMBER OF EQUATIONS =      3349     NUMBER OF RHS =    1
  NUMBER OF FLOATING PT. OPERATIONS =  8.34E+06

  USING THE DIRECT SOLVER WITH   4 PROCESSORS

     CHECK POINT   START OF SOLVER    

     CHECK POINT  END OF SOLVER       

       ELAPSED USER TIME (SEC)      =  7.00000E-02
       ELAPSED SYSTEM TIME (SEC)    =  1.00000E-02
       ELAPSED TOTAL CPU TIME (SEC) =  8.00000E-02
       ELAPSED WALLCLOCK TIME (SEC) =          0
  
     ASYNCHRONOUS TRACKING ELEMENT LOOP STARTED
  

               CONVERGENCE CHECKS FOR EQUILIBRIUM ITERATION     1

   MAX. PENETRATION ERROR -1.10408E-06 AT NODE PART-1-1.401 OF CONTACT PAIR 
   (ASSEMBLY_S_SURF-1,ASSEMBLY_SURF-5)
   MAX. CONTACT FORCE ERROR -34.9542      AT NODE PART-1-1.401 OF CONTACT PAIR 
   (ASSEMBLY_S_SURF-1,ASSEMBLY_SURF-5)
          THE CONTACT CONSTRAINTS HAVE CONVERGED.

 AVERAGE FORCE                       912.       TIME AVG. FORCE        458.    
 LARGEST RESIDUAL FORCE              163.       AT NODE        424   DOF  2
   INSTANCE: PART-1-1                                                                        
 LARGEST INCREMENT OF DISP.        -6.436E-04   AT NODE        401   DOF  2
   INSTANCE: PART-1-1                                                                        
 LARGEST CORRECTION TO DISP.       -1.379E-04   AT NODE        401   DOF  2
   INSTANCE: PART-1-1                                                                        
          FORCE     EQUILIBRIUM NOT ACHIEVED WITHIN TOLERANCE.

 AVERAGE MOMENT                      57.3       TIME AVG. MOMENT       34.8    
 ALL MOMENT    RESIDUALS ARE ZERO
 LARGEST INCREMENT OF ROTATION     -8.549E-34   AT NODE         12   DOF  6
   INSTANCE: PART-3-1                                                                        
 LARGEST CORRECTION TO ROTATION    -1.425E-34   AT NODE         12   DOF  6
   INSTANCE: PART-3-1                                                                        
          THE MOMENT    EQUILIBRIUM RESPONSE WAS LINEAR IN THIS INCREMENT

  NUMBER OF EQUATIONS =      3349     NUMBER OF RHS =    1
  NUMBER OF FLOATING PT. OPERATIONS =  8.34E+06

  USING THE DIRECT SOLVER WITH   4 PROCESSORS

     CHECK POINT   START OF SOLVER    

     CHECK POINT  END OF SOLVER       

       ELAPSED USER TIME (SEC)      =  5.00000E-02
       ELAPSED SYSTEM TIME (SEC)    =  3.00000E-02
       ELAPSED TOTAL CPU TIME (SEC) =  8.00000E-02
       ELAPSED WALLCLOCK TIME (SEC) =          0
  
     ASYNCHRONOUS TRACKING ELEMENT LOOP STARTED
  

               CONVERGENCE CHECKS FOR EQUILIBRIUM ITERATION     2

   MAX. PENETRATION ERROR -76.1609E-09  AT NODE PART-1-1.401 OF CONTACT PAIR 
   (ASSEMBLY_S_SURF-1,ASSEMBLY_SURF-5)
   MAX. CONTACT FORCE ERROR -2.41301     AT NODE PART-1-1.401 OF CONTACT PAIR 
   (ASSEMBLY_S_SURF-1,ASSEMBLY_SURF-5)
          THE CONTACT CONSTRAINTS HAVE CONVERGED.

 AVERAGE FORCE                       912.       TIME AVG. FORCE        458.    
 LARGEST RESIDUAL FORCE             -8.81       AT NODE        401   DOF  2
   INSTANCE: PART-1-1                                                                        
 LARGEST INCREMENT OF DISP.        -6.416E-04   AT NODE        401   DOF  2
   INSTANCE: PART-1-1                                                                        
 LARGEST CORRECTION TO DISP.        3.743E-06   AT NODE         58   DOF  1
   INSTANCE: PART-1-1                                                                        
          FORCE     EQUILIBRIUM NOT ACHIEVED WITHIN TOLERANCE.

 AVERAGE MOMENT                      57.5       TIME AVG. MOMENT       34.8    
 ALL MOMENT    RESIDUALS ARE ZERO
 LARGEST INCREMENT OF ROTATION     -8.551E-34   AT NODE         12   DOF  6
   INSTANCE: PART-3-1                                                                        
 LARGEST CORRECTION TO ROTATION    -1.963E-37   AT NODE         12   DOF  6
   INSTANCE: PART-3-1                                                                        
          THE MOMENT    EQUILIBRIUM EQUATIONS HAVE CONVERGED

  NUMBER OF EQUATIONS =      3349     NUMBER OF RHS =    1
  NUMBER OF FLOATING PT. OPERATIONS =  8.34E+06

  USING THE DIRECT SOLVER WITH   4 PROCESSORS

     CHECK POINT   START OF SOLVER    

     CHECK POINT  END OF SOLVER       

       ELAPSED USER TIME (SEC)      =  6.00000E-02
       ELAPSED SYSTEM TIME (SEC)    =  2.00000E-02
       ELAPSED TOTAL CPU TIME (SEC) =  8.00000E-02
       ELAPSED WALLCLOCK TIME (SEC) =          0
  
     ASYNCHRONOUS TRACKING ELEMENT LOOP STARTED
  

               CONVERGENCE CHECKS FOR EQUILIBRIUM ITERATION     3

   MAX. PENETRATION ERROR -9.48842E-09 AT NODE PART-1-1.401 OF CONTACT PAIR 
   (ASSEMBLY_S_SURF-1,ASSEMBLY_SURF-5)
   MAX. CONTACT FORCE ERROR -300.621E-03   AT NODE PART-1-1.401 OF CONTACT PAIR 
   (ASSEMBLY_S_SURF-1,ASSEMBLY_SURF-5)
          THE CONTACT CONSTRAINTS HAVE CONVERGED.

 AVERAGE FORCE                       911.       TIME AVG. FORCE        458.    
 LARGEST RESIDUAL FORCE             -1.15       AT NODE        424   DOF  2
   INSTANCE: PART-1-1                                                                        
 LARGEST INCREMENT OF DISP.        -6.416E-04   AT NODE        401   DOF  2
   INSTANCE: PART-1-1                                                                        
 LARGEST CORRECTION TO DISP.       -4.978E-07   AT NODE        424   DOF  1
   INSTANCE: PART-1-1                                                                        
          THE FORCE     EQUILIBRIUM EQUATIONS HAVE CONVERGED

 AVERAGE MOMENT                      57.4       TIME AVG. MOMENT       34.8    
 ALL MOMENT    RESIDUALS ARE ZERO
 LARGEST INCREMENT OF ROTATION     -8.551E-34   AT NODE         12   DOF  6
   INSTANCE: PART-3-1                                                                        
 LARGEST CORRECTION TO ROTATION    -1.967E-38   AT NODE         12   DOF  6
   INSTANCE: PART-3-1                                                                        
          THE MOMENT    EQUILIBRIUM EQUATIONS HAVE CONVERGED

 ITERATION SUMMARY FOR THE INCREMENT:   3 TOTAL ITERATIONS, OF WHICH
   0 ARE SEVERE DISCONTINUITY ITERATIONS AND  3 ARE EQUILIBRIUM ITERATIONS.

 TIME INCREMENT COMPLETED  5.000E-02,  FRACTION OF STEP COMPLETED  0.400    
 STEP TIME COMPLETED       0.400    ,  TOTAL TIME COMPLETED        0.400    
  
     ASYNCHRONOUS OUTPUT DATABASE FRAME FLUSH STARTED
  


  INCREMENT     9 STARTS. ATTEMPT NUMBER  1, TIME INCREMENT  5.000E-02
  
     ASYNCHRONOUS TRACKING ELEMENT LOOP STARTED
  

  NUMBER OF EQUATIONS =      3349     NUMBER OF RHS =    1
  NUMBER OF FLOATING PT. OPERATIONS =  8.34E+06

  USING THE DIRECT SOLVER WITH   4 PROCESSORS

     CHECK POINT   START OF SOLVER    

     CHECK POINT  END OF SOLVER       

       ELAPSED USER TIME (SEC)      =  5.00000E-02
       ELAPSED SYSTEM TIME (SEC)    =  3.00000E-02
       ELAPSED TOTAL CPU TIME (SEC) =  8.00000E-02
       ELAPSED WALLCLOCK TIME (SEC) =          0
  
     ASYNCHRONOUS TRACKING ELEMENT LOOP STARTED
  

                    5 SEVERE DISCONTINUITIES OCCURRED DURING THIS ITERATION.
                    2 POINTS CHANGED FROM OPEN TO CLOSED
                    1 POINTS CHANGED FROM SLIPPING TO STICKING
                    2 POINTS CHANGED FROM STICKING TO SLIPPING

               CONVERGENCE CHECKS FOR SEVERE DISCONTINUITY ITERATION     1

   MAX. PENETRATION ERROR 73.5017E-06  AT NODE PART-1-1.70 OF CONTACT PAIR 
   (ASSEMBLY_S_SURF-1,ASSEMBLY_SURF-5)
   MAX. CONTACT FORCE ERROR 2.36104E+03 AT NODE PART-1-1.70 OF CONTACT PAIR 
   (ASSEMBLY_S_SURF-1,ASSEMBLY_SURF-5)
          PENETRATION ERROR TOO LARGE COMPARED TO DISPLACEMENT INCREMENT.

 AVERAGE FORCE                      1.066E+03   TIME AVG. FORCE        526.    
 LARGEST RESIDUAL FORCE             -27.3       AT NODE        424   DOF  2
   INSTANCE: PART-1-1                                                                        
 LARGEST INCREMENT OF DISP.        -6.399E-04   AT NODE        401   DOF  2
   INSTANCE: PART-1-1                                                                        
 LARGEST CORRECTION TO DISP.       -1.351E-05   AT NODE        424   DOF  1
   INSTANCE: PART-1-1                                                                        
          FORCE     EQUILIBRIUM NOT ACHIEVED WITHIN TOLERANCE.

 AVERAGE MOMENT                      67.7       TIME AVG. MOMENT       38.4    
 ALL MOMENT    RESIDUALS ARE ZERO
 LARGEST INCREMENT OF ROTATION     -1.002E-33   AT NODE         12   DOF  6
   INSTANCE: PART-3-1                                                                        
 LARGEST CORRECTION TO ROTATION    -1.466E-34   AT NODE         12   DOF  6
   INSTANCE: PART-3-1                                                                        
          THE MOMENT    EQUILIBRIUM EQUATIONS HAVE CONVERGED

  NUMBER OF EQUATIONS =      3349     NUMBER OF RHS =    1
  NUMBER OF FLOATING PT. OPERATIONS =  8.49E+06

  USING THE DIRECT SOLVER WITH   4 PROCESSORS

     CHECK POINT   START OF SOLVER    

     CHECK POINT  END OF SOLVER       

       ELAPSED USER TIME (SEC)      =  5.00000E-02
       ELAPSED SYSTEM TIME (SEC)    =  2.00000E-02
       ELAPSED TOTAL CPU TIME (SEC) =  7.00000E-02
       ELAPSED WALLCLOCK TIME (SEC) =          0
  
     ASYNCHRONOUS TRACKING ELEMENT LOOP STARTED
  

               CONVERGENCE CHECKS FOR EQUILIBRIUM ITERATION     1

   MAX. PENETRATION ERROR -652.666E-09   AT NODE PART-1-1.58 OF CONTACT PAIR 
   (ASSEMBLY_S_SURF-1,ASSEMBLY_SURF-5)
   MAX. CONTACT FORCE ERROR -20.8227      AT NODE PART-1-1.58 OF CONTACT PAIR 
   (ASSEMBLY_S_SURF-1,ASSEMBLY_SURF-5)
          THE CONTACT CONSTRAINTS HAVE CONVERGED.

 AVERAGE FORCE                      1.068E+03   TIME AVG. FORCE        526.    
 LARGEST RESIDUAL FORCE              67.5       AT NODE         70   DOF  2
   INSTANCE: PART-1-1                                                                        
 LARGEST INCREMENT OF DISP.        -6.326E-04   AT NODE        401   DOF  2
   INSTANCE: PART-1-1                                                                        
 LARGEST CORRECTION TO DISP.       -8.413E-05   AT NODE         70   DOF  2
   INSTANCE: PART-1-1                                                                        
[...]
 LARGEST CORRECTION TO DISP.       -5.588E-06   AT NODE        420   DOF  1
   INSTANCE: PART-1-1                                                                        
          FORCE     EQUILIBRIUM NOT ACHIEVED WITHIN TOLERANCE.

 AVERAGE MOMENT                      146.       TIME AVG. MOMENT       71.3    
 ALL MOMENT    RESIDUALS ARE ZERO
 LARGEST INCREMENT OF ROTATION     -3.249E-33   AT NODE         12   DOF  6
   INSTANCE: PART-3-1                                                                        
 LARGEST CORRECTION TO ROTATION    -7.078E-37   AT NODE         12   DOF  6
   INSTANCE: PART-3-1                                                                        
          THE MOMENT    EQUILIBRIUM EQUATIONS HAVE CONVERGED

  NUMBER OF EQUATIONS =      3349     NUMBER OF RHS =    1
  NUMBER OF FLOATING PT. OPERATIONS =  8.47E+06

  USING THE DIRECT SOLVER WITH   4 PROCESSORS

     CHECK POINT   START OF SOLVER    

     CHECK POINT  END OF SOLVER       

       ELAPSED USER TIME (SEC)      =  6.00000E-02
       ELAPSED SYSTEM TIME (SEC)    =  2.00000E-02
       ELAPSED TOTAL CPU TIME (SEC) =  8.00000E-02
       ELAPSED WALLCLOCK TIME (SEC) =          0
  
     ASYNCHRONOUS TRACKING ELEMENT LOOP STARTED
  

               CONVERGENCE CHECKS FOR EQUILIBRIUM ITERATION     1

   MAX. PENETRATION ERROR -5.05891E-09 AT NODE PART-1-1.405 OF CONTACT PAIR 
   (ASSEMBLY_S_SURF-1,ASSEMBLY_SURF-5)
   MAX. CONTACT FORCE ERROR -159.505E-03   AT NODE PART-1-1.405 OF CONTACT PAIR 
   (ASSEMBLY_S_SURF-1,ASSEMBLY_SURF-5)
          THE CONTACT CONSTRAINTS HAVE CONVERGED.

 AVERAGE FORCE                      3.326E+03   TIME AVG. FORCE       1.400E+03
 LARGEST RESIDUAL FORCE              1.55       AT NODE        420   DOF  1
   INSTANCE: PART-1-1                                                                        
 LARGEST INCREMENT OF DISP.        -6.431E-04   AT NODE        405   DOF  2
   INSTANCE: PART-1-1                                                                        
 LARGEST CORRECTION TO DISP.       -7.619E-07   AT NODE         68   DOF  2
   INSTANCE: PART-1-1                                                                        
          THE FORCE     EQUILIBRIUM EQUATIONS HAVE CONVERGED

 AVERAGE MOMENT                      146.       TIME AVG. MOMENT       71.3    
 ALL MOMENT    RESIDUALS ARE ZERO
 LARGEST INCREMENT OF ROTATION     -3.249E-33   AT NODE         12   DOF  6
   INSTANCE: PART-3-1                                                                        
 LARGEST CORRECTION TO ROTATION    -2.371E-38   AT NODE         12   DOF  6
   INSTANCE: PART-3-1                                                                        
          THE MOMENT    EQUILIBRIUM RESPONSE WAS LINEAR IN THIS INCREMENT

 ITERATION SUMMARY FOR THE INCREMENT:   3 TOTAL ITERATIONS, OF WHICH
   2 ARE SEVERE DISCONTINUITY ITERATIONS AND  1 ARE EQUILIBRIUM ITERATIONS.

 TIME INCREMENT COMPLETED  5.000E-02,  FRACTION OF STEP COMPLETED  0.950    
 STEP TIME COMPLETED       0.950    ,  TOTAL TIME COMPLETED        0.950    
  
     ASYNCHRONOUS OUTPUT DATABASE FRAME FLUSH STARTED
  


  INCREMENT    20 STARTS. ATTEMPT NUMBER  1, TIME INCREMENT  5.000E-02
  
     ASYNCHRONOUS TRACKING ELEMENT LOOP STARTED
  

  NUMBER OF EQUATIONS =      3349     NUMBER OF RHS =    1
  NUMBER OF FLOATING PT. OPERATIONS =  8.47E+06

  USING THE DIRECT SOLVER WITH   4 PROCESSORS

     CHECK POINT   START OF SOLVER    

     CHECK POINT  END OF SOLVER       

       ELAPSED USER TIME (SEC)      =  7.00000E-02
       ELAPSED SYSTEM TIME (SEC)    =  2.00000E-02
       ELAPSED TOTAL CPU TIME (SEC) =  9.00000E-02
       ELAPSED WALLCLOCK TIME (SEC) =          0
  
     ASYNCHRONOUS TRACKING ELEMENT LOOP STARTED
  

                   16 SEVERE DISCONTINUITIES OCCURRED DURING THIS ITERATION.
                    7 POINTS CHANGED FROM OPEN TO CLOSED
                    7 POINTS CHANGED FROM SLIPPING TO STICKING
                    2 POINTS CHANGED FROM STICKING TO SLIPPING

               CONVERGENCE CHECKS FOR SEVERE DISCONTINUITY ITERATION     1

   MAX. PENETRATION ERROR 114.557E-06   AT NODE PART-1-1.60 OF CONTACT PAIR 
   (ASSEMBLY_S_SURF-1,ASSEMBLY_SURF-5)
   MAX. CONTACT FORCE ERROR 4.04152E+03 AT NODE PART-1-1.68 OF CONTACT PAIR 
   (ASSEMBLY_S_SURF-1,ASSEMBLY_SURF-5)
          PENETRATION ERROR TOO LARGE COMPARED TO DISPLACEMENT INCREMENT.

 AVERAGE FORCE                      3.644E+03   TIME AVG. FORCE       1.513E+03
 LARGEST RESIDUAL FORCE              301.       AT NODE        427   DOF  1
   INSTANCE: PART-1-1                                                                        
 LARGEST INCREMENT OF DISP.        -6.404E-04   AT NODE        405   DOF  2
   INSTANCE: PART-1-1                                                                        
 LARGEST CORRECTION TO DISP.       -3.017E-05   AT NODE        420   DOF  1
   INSTANCE: PART-1-1                                                                        
          FORCE     EQUILIBRIUM NOT ACHIEVED WITHIN TOLERANCE.

 AVERAGE MOMENT                      163.       TIME AVG. MOMENT       75.9    
 ALL MOMENT    RESIDUALS ARE ZERO
 LARGEST INCREMENT OF ROTATION     -3.564E-33   AT NODE         12   DOF  6
   INSTANCE: PART-3-1                                                                        
 LARGEST CORRECTION TO ROTATION    -3.149E-34   AT NODE         12   DOF  6
   INSTANCE: PART-3-1                                                                        
          THE MOMENT    EQUILIBRIUM EQUATIONS HAVE CONVERGED

  NUMBER OF EQUATIONS =      3349     NUMBER OF RHS =    1
  NUMBER OF FLOATING PT. OPERATIONS =  8.93E+06

  USING THE DIRECT SOLVER WITH   4 PROCESSORS

     CHECK POINT   START OF SOLVER    

     CHECK POINT  END OF SOLVER       

       ELAPSED USER TIME (SEC)      =  6.00000E-02
       ELAPSED SYSTEM TIME (SEC)    =  3.00000E-02
       ELAPSED TOTAL CPU TIME (SEC) =  9.00000E-02
       ELAPSED WALLCLOCK TIME (SEC) =          0
  
     ASYNCHRONOUS TRACKING ELEMENT LOOP STARTED
  

                    2 SEVERE DISCONTINUITIES OCCURRED DURING THIS ITERATION.
                    2 POINTS CHANGED FROM STICKING TO SLIPPING

               CONVERGENCE CHECKS FOR SEVERE DISCONTINUITY ITERATION     2

   MAX. PENETRATION ERROR -2.32971E-06 AT NODE PART-1-1.60 OF CONTACT PAIR 
   (ASSEMBLY_S_SURF-1,ASSEMBLY_SURF-5)
   MAX. CONTACT FORCE ERROR -74.3370      AT NODE PART-1-1.60 OF CONTACT PAIR 
   (ASSEMBLY_S_SURF-1,ASSEMBLY_SURF-5)
          THE CONTACT CONSTRAINT ERRORS ARE WITHIN THE TOLERANCES.

 AVERAGE FORCE                      3.644E+03   TIME AVG. FORCE       1.513E+03
 LARGEST RESIDUAL FORCE              342.       AT NODE         68   DOF  2
   INSTANCE: PART-1-1                                                                        
 LARGEST INCREMENT OF DISP.        -6.300E-04   AT NODE          1   DOF  2
   INSTANCE: PART-3-1                                                                        
 LARGEST CORRECTION TO DISP.       -1.438E-04   AT NODE         68   DOF  2
   INSTANCE: PART-1-1                                                                        
          FORCE     EQUILIBRIUM NOT ACHIEVED WITHIN TOLERANCE.

 AVERAGE MOMENT                      130.       TIME AVG. MOMENT       74.2    
 ALL MOMENT    RESIDUALS ARE ZERO
 LARGEST INCREMENT OF ROTATION     -3.574E-33   AT NODE         12   DOF  6
   INSTANCE: PART-3-1                                                                        
 LARGEST CORRECTION TO ROTATION    -1.062E-35   AT NODE         12   DOF  6
   INSTANCE: PART-3-1                                                                        
          THE MOMENT    EQUILIBRIUM EQUATIONS HAVE CONVERGED

  NUMBER OF EQUATIONS =      3349     NUMBER OF RHS =    1
  NUMBER OF FLOATING PT. OPERATIONS =  8.93E+06

  USING THE DIRECT SOLVER WITH   4 PROCESSORS

     CHECK POINT   START OF SOLVER    

     CHECK POINT  END OF SOLVER       

       ELAPSED USER TIME (SEC)      =  7.00000E-02
       ELAPSED SYSTEM TIME (SEC)    =  1.00000E-02
       ELAPSED TOTAL CPU TIME (SEC) =  8.00000E-02
       ELAPSED WALLCLOCK TIME (SEC) =          0
  
     ASYNCHRONOUS TRACKING ELEMENT LOOP STARTED
  

                    1 SEVERE DISCONTINUITIES OCCURRED DURING THIS ITERATION.
                    1 POINTS CHANGED FROM STICKING TO SLIPPING

               CONVERGENCE CHECKS FOR SEVERE DISCONTINUITY ITERATION     3

   MAX. PENETRATION ERROR -175.743E-09   AT NODE PART-1-1.60 OF CONTACT PAIR 
   (ASSEMBLY_S_SURF-1,ASSEMBLY_SURF-5)
   MAX. CONTACT FORCE ERROR -5.61495     AT NODE PART-1-1.60 OF CONTACT PAIR 
   (ASSEMBLY_S_SURF-1,ASSEMBLY_SURF-5)
          THE CONTACT CONSTRAINT ERRORS ARE WITHIN THE TOLERANCES.

 AVERAGE FORCE                      3.644E+03   TIME AVG. FORCE       1.513E+03
 LARGEST RESIDUAL FORCE              62.3       AT NODE        426   DOF  1
   INSTANCE: PART-1-1                                                                        
 LARGEST INCREMENT OF DISP.        -6.300E-04   AT NODE          1   DOF  2
   INSTANCE: PART-3-1                                                                        
 LARGEST CORRECTION TO DISP.        3.887E-06   AT NODE         68   DOF  2
   INSTANCE: PART-1-1                                                                        
          FORCE     EQUILIBRIUM NOT ACHIEVED WITHIN TOLERANCE.

 AVERAGE MOMENT                      130.       TIME AVG. MOMENT       74.3    
 ALL MOMENT    RESIDUALS ARE ZERO
 LARGEST INCREMENT OF ROTATION     -3.574E-33   AT NODE         12   DOF  6
   INSTANCE: PART-3-1                                                                        
 LARGEST CORRECTION TO ROTATION    -1.450E-38   AT NODE         12   DOF  6
   INSTANCE: PART-3-1                                                                        
          THE MOMENT    EQUILIBRIUM EQUATIONS HAVE CONVERGED

  NUMBER OF EQUATIONS =      3349     NUMBER OF RHS =    1
  NUMBER OF FLOATING PT. OPERATIONS =  8.93E+06

  USING THE DIRECT SOLVER WITH   4 PROCESSORS

     CHECK POINT   START OF SOLVER    

     CHECK POINT  END OF SOLVER       

       ELAPSED USER TIME (SEC)      =  7.00000E-02
       ELAPSED SYSTEM TIME (SEC)    =  1.00000E-02
       ELAPSED TOTAL CPU TIME (SEC) =  8.00000E-02
       ELAPSED WALLCLOCK TIME (SEC) =          0
  
     ASYNCHRONOUS TRACKING ELEMENT LOOP STARTED
  

                    1 SEVERE DISCONTINUITIES OCCURRED DURING THIS ITERATION.
                    1 POINTS CHANGED FROM STICKING TO SLIPPING

               CONVERGENCE CHECKS FOR SEVERE DISCONTINUITY ITERATION     4

   MAX. PENETRATION ERROR -105.045E-09   AT NODE PART-1-1.68 OF CONTACT PAIR 
   (ASSEMBLY_S_SURF-1,ASSEMBLY_SURF-5)
   MAX. CONTACT FORCE ERROR -3.74429     AT NODE PART-1-1.68 OF CONTACT PAIR 
   (ASSEMBLY_S_SURF-1,ASSEMBLY_SURF-5)
          THE CONTACT CONSTRAINT ERRORS ARE WITHIN THE TOLERANCES.

 AVERAGE FORCE                      3.644E+03   TIME AVG. FORCE       1.513E+03
 LARGEST RESIDUAL FORCE              41.0       AT NODE         72   DOF  1
   INSTANCE: PART-1-1                                                                        
 LARGEST INCREMENT OF DISP.        -6.300E-04   AT NODE          1   DOF  2
   INSTANCE: PART-3-1                                                                        
 LARGEST CORRECTION TO DISP.        1.907E-06   AT NODE        426   DOF  1
   INSTANCE: PART-1-1                                                                        
          FORCE     EQUILIBRIUM NOT ACHIEVED WITHIN TOLERANCE.

 AVERAGE MOMENT                      130.       TIME AVG. MOMENT       74.3    
 ALL MOMENT    RESIDUALS ARE ZERO
 LARGEST INCREMENT OF ROTATION     -3.574E-33   AT NODE         12   DOF  6
   INSTANCE: PART-3-1                                                                        
 LARGEST CORRECTION TO ROTATION    -3.391E-38   AT NODE         12   DOF  6
   INSTANCE: PART-3-1                                                                        
          THE MOMENT    EQUILIBRIUM EQUATIONS HAVE CONVERGED

  NUMBER OF EQUATIONS =      3349     NUMBER OF RHS =    1
  NUMBER OF FLOATING PT. OPERATIONS =  8.93E+06

  USING THE DIRECT SOLVER WITH   4 PROCESSORS

     CHECK POINT   START OF SOLVER    

     CHECK POINT  END OF SOLVER       

       ELAPSED USER TIME (SEC)      =  6.00000E-02
       ELAPSED SYSTEM TIME (SEC)    =  2.00000E-02
       ELAPSED TOTAL CPU TIME (SEC) =  8.00000E-02
       ELAPSED WALLCLOCK TIME (SEC) =          0
  
     ASYNCHRONOUS TRACKING ELEMENT LOOP STARTED
  

                    1 SEVERE DISCONTINUITIES OCCURRED DURING THIS ITERATION.
                    1 POINTS CHANGED FROM STICKING TO SLIPPING

               CONVERGENCE CHECKS FOR SEVERE DISCONTINUITY ITERATION     5

   MAX. PENETRATION ERROR 23.5816E-09  AT NODE PART-1-1.68 OF CONTACT PAIR 
   (ASSEMBLY_S_SURF-1,ASSEMBLY_SURF-5)
   MAX. CONTACT FORCE ERROR 840.576E-03   AT NODE PART-1-1.68 OF CONTACT PAIR 
   (ASSEMBLY_S_SURF-1,ASSEMBLY_SURF-5)
          THE CONTACT CONSTRAINT ERRORS ARE WITHIN THE TOLERANCES.

 AVERAGE FORCE                      3.644E+03   TIME AVG. FORCE       1.513E+03
 LARGEST RESIDUAL FORCE              25.2       AT NODE        427   DOF  1
   INSTANCE: PART-1-1                                                                        
 LARGEST INCREMENT OF DISP.        -6.300E-04   AT NODE          1   DOF  2
   INSTANCE: PART-3-1                                                                        
 LARGEST CORRECTION TO DISP.        1.363E-06   AT NODE         72   DOF  1
   INSTANCE: PART-1-1                                                                        
          FORCE     EQUILIBRIUM NOT ACHIEVED WITHIN TOLERANCE.

 AVERAGE MOMENT                      130.       TIME AVG. MOMENT       74.3    
 ALL MOMENT    RESIDUALS ARE ZERO
 LARGEST INCREMENT OF ROTATION     -3.574E-33   AT NODE         12   DOF  6
   INSTANCE: PART-3-1                                                                        
 LARGEST CORRECTION TO ROTATION     8.533E-38   AT NODE         12   DOF  6
   INSTANCE: PART-3-1                                                                        
          THE MOMENT    EQUILIBRIUM EQUATIONS HAVE CONVERGED

  NUMBER OF EQUATIONS =      3349     NUMBER OF RHS =    1
  NUMBER OF FLOATING PT. OPERATIONS =  8.93E+06

  USING THE DIRECT SOLVER WITH   4 PROCESSORS

     CHECK POINT   START OF SOLVER    

     CHECK POINT  END OF SOLVER       

       ELAPSED USER TIME (SEC)      =  8.00000E-02
       ELAPSED SYSTEM TIME (SEC)    =   0.0000    
       ELAPSED TOTAL CPU TIME (SEC) =  8.00000E-02
       ELAPSED WALLCLOCK TIME (SEC) =          0
  
     ASYNCHRONOUS TRACKING ELEMENT LOOP STARTED
  

                    1 SEVERE DISCONTINUITIES OCCURRED DURING THIS ITERATION.
                    1 POINTS CHANGED FROM STICKING TO SLIPPING

               CONVERGENCE CHECKS FOR SEVERE DISCONTINUITY ITERATION     6

   MAX. PENETRATION ERROR 28.6180E-09  AT NODE PART-1-1.68 OF CONTACT PAIR 
   (ASSEMBLY_S_SURF-1,ASSEMBLY_SURF-5)
   MAX. CONTACT FORCE ERROR 1.02010     AT NODE PART-1-1.68 OF CONTACT PAIR 
   (ASSEMBLY_S_SURF-1,ASSEMBLY_SURF-5)
          THE CONTACT CONSTRAINT ERRORS ARE WITHIN THE TOLERANCES.

 AVERAGE FORCE                      3.644E+03   TIME AVG. FORCE       1.513E+03
 LARGEST RESIDUAL FORCE              11.1       AT NODE        428   DOF  1
   INSTANCE: PART-1-1                                                                        
 LARGEST INCREMENT OF DISP.        -6.300E-04   AT NODE          1   DOF  2
   INSTANCE: PART-3-1                                                                        
 LARGEST CORRECTION TO DISP.        8.647E-07   AT NODE        427   DOF  1
   INSTANCE: PART-1-1                                                                        
          FORCE     EQUILIBRIUM NOT ACHIEVED WITHIN TOLERANCE.

 AVERAGE MOMENT                      130.       TIME AVG. MOMENT       74.3    
 ALL MOMENT    RESIDUALS ARE ZERO
 LARGEST INCREMENT OF ROTATION     -3.574E-33   AT NODE         12   DOF  6
   INSTANCE: PART-3-1                                                                        
 LARGEST CORRECTION TO ROTATION     7.210E-38   AT NODE         12   DOF  6
   INSTANCE: PART-3-1                                                                        
          THE MOMENT    EQUILIBRIUM EQUATIONS HAVE CONVERGED

  NUMBER OF EQUATIONS =      3349     NUMBER OF RHS =    1
  NUMBER OF FLOATING PT. OPERATIONS =  8.93E+06

  USING THE DIRECT SOLVER WITH   4 PROCESSORS

     CHECK POINT   START OF SOLVER    

     CHECK POINT  END OF SOLVER       

       ELAPSED USER TIME (SEC)      =  6.00000E-02
       ELAPSED SYSTEM TIME (SEC)    =  3.00000E-02
       ELAPSED TOTAL CPU TIME (SEC) =  9.00000E-02
       ELAPSED WALLCLOCK TIME (SEC) =          0
  
     ASYNCHRONOUS TRACKING ELEMENT LOOP STARTED
  

               CONVERGENCE CHECKS FOR EQUILIBRIUM ITERATION     1

   MAX. PENETRATION ERROR 10.0877E-09  AT NODE PART-1-1.68 OF CONTACT PAIR 
   (ASSEMBLY_S_SURF-1,ASSEMBLY_SURF-5)
   MAX. CONTACT FORCE ERROR 359.576E-03   AT NODE PART-1-1.68 OF CONTACT PAIR 
   (ASSEMBLY_S_SURF-1,ASSEMBLY_SURF-5)
          THE CONTACT CONSTRAINTS HAVE CONVERGED.

 AVERAGE FORCE                      3.644E+03   TIME AVG. FORCE       1.513E+03
 LARGEST RESIDUAL FORCE             0.612       AT NODE         68   DOF  2
   INSTANCE: PART-1-1                                                                        
 LARGEST INCREMENT OF DISP.        -6.300E-04   AT NODE          1   DOF  2
   INSTANCE: PART-3-1                                                                        
 LARGEST CORRECTION TO DISP.        3.816E-07   AT NODE        428   DOF  1
   INSTANCE: PART-1-1                                                                        
          THE FORCE     EQUILIBRIUM EQUATIONS HAVE CONVERGED

 AVERAGE MOMENT                      130.       TIME AVG. MOMENT       74.3    
 ALL MOMENT    RESIDUALS ARE ZERO
 LARGEST INCREMENT OF ROTATION     -3.574E-33   AT NODE         12   DOF  6
   INSTANCE: PART-3-1                                                                        
 LARGEST CORRECTION TO ROTATION     2.800E-38   AT NODE         12   DOF  6
   INSTANCE: PART-3-1                                                                        
          THE MOMENT    EQUILIBRIUM RESPONSE WAS LINEAR IN THIS INCREMENT

 ITERATION SUMMARY FOR THE INCREMENT:   7 TOTAL ITERATIONS, OF WHICH
   6 ARE SEVERE DISCONTINUITY ITERATIONS AND  1 ARE EQUILIBRIUM ITERATIONS.

 TIME INCREMENT COMPLETED  5.000E-02,  FRACTION OF STEP COMPLETED   1.00    
 STEP TIME COMPLETED        1.00    ,  TOTAL TIME COMPLETED         1.00    


          THE ANALYSIS HAS BEEN COMPLETED



     ANALYSIS SUMMARY:
     TOTAL OF         20  INCREMENTS
                       0  CUTBACKS IN AUTOMATIC INCREMENTATION
                      77  ITERATIONS INCLUDING CONTACT ITERATIONS IF PRESENT
                      77  PASSES THROUGH THE EQUATION SOLVER OF WHICH 
                      77  INVOLVE MATRIX DECOMPOSITION, INCLUDING
                       0  DECOMPOSITION(S) OF THE MASS MATRIX
                       1  REORDERING OF EQUATIONS TO MINIMIZE WAVEFRONT
                       0  ADDITIONAL RESIDUAL EVALUATIONS FOR LINE SEARCHES
                       0  ADDITIONAL OPERATOR EVALUATIONS FOR LINE SEARCHES
                      42  WARNING MESSAGES DURING USER INPUT PROCESSING
                       0  WARNING MESSAGES DURING ANALYSIS
                       0  ANALYSIS WARNINGS ARE NUMERICAL PROBLEM MESSAGES
                       0  ANALYSIS WARNINGS ARE NEGATIVE EIGENVALUE MESSAGES
                       0  ERROR MESSAGES



     JOB TIME SUMMARY
       USER TIME (SEC)      =   22.060    
       SYSTEM TIME (SEC)    =   3.2900    
       TOTAL CPU TIME (SEC) =   25.350    
       WALLCLOCK TIME (SEC) =          8
