 Abaqus/Standard 3DEXPERIENCE R2018x                  DATE 22-Mar-2018 TIME 14:47:55
 SUMMARY OF JOB INFORMATION:
 STEP  INC ATT SEVERE EQUIL TOTAL  TOTAL      STEP       INC OF       DOF    IF
               DISCON ITERS ITERS  TIME/    TIME/LPF    TIME/LPF    MONITOR RIKS
               ITERS               FREQ
   1     1   1     3     3     6  0.0500     0.0500     0.05000   
   1     2   1     1     3     4  0.100      0.100      0.05000   
   1     3   1     1     3     4  0.150      0.150      0.05000   
   1     4   1     0     3     3  0.200      0.200      0.05000   
   1     5   1     2     3     5  0.250      0.250      0.05000   
   1     6   1     1     3     4  0.300      0.300      0.05000   
   1     7   1     1     2     3  0.350      0.350      0.05000   
   1     8   1     0     3     3  0.400      0.400      0.05000   
   1     9   1     1     3     4  0.450      0.450      0.05000   
   1    10   1     0     3     3  0.500      0.500      0.05000   
   1    11   1     1     3     4  0.550      0.550      0.05000   
   1    12   1     1     2     3  0.600      0.600      0.05000   
   1    13   1     1     2     3  0.650      0.650      0.05000   
   1    14   1     1     2     3  0.700      0.700      0.05000   
   1    15   1     0     3     3  0.750      0.750      0.05000   
   1    16   1     2     2     4  0.800      0.800      0.05000   
   1    17   1     1     2     3  0.850      0.850      0.05000   
   1    18   1     2     3     5  0.900      0.900      0.05000   
   1    19   1     2     1     3  0.950      0.950      0.05000   
   1    20   1     6     1     7  1.00       1.00       0.05000   
                          
 THE ANALYSIS HAS COMPLETED SUCCESSFULLY
