*Heading
** Job name: Job-1 Model name: Model-1
** Generated by: Abaqus/CAE 2018
*Preprint, echo=NO, model=NO, history=NO, contact=NO
**
** PARTS
**
*Part, name=Part-1
*Node
      1,           0., 0.00241538463
      2,           0., 0.00483076926
      3,           0., 0.00724615389
      4,           0., 0.0108692311
      5,           0., 0.0132846152
      6,           0.,           0.
      7,           0., 0.0156999994
      8, 0.0604799986,           0.
      9, 0.0579599999,           0.
     10, 0.0554400012,           0.
     11, 0.0529199988,           0.
     12, 0.0504000001,           0.
     13, 0.0478800014,           0.
     14, 0.0441000015,           0.
     15,  0.041579999,           0.
     16, 0.0390600003,           0.
     17, 0.0365400016,           0.
     18, 0.0340199992,           0.
     19, 0.0315000005,           0.
     20, 0.0289799999,           0.
** ... 1381 like lines cut
*Element, type=CPS3
 1,  877,  849,  803
 2, 1190, 1187,   86
 3, 1379, 1154, 1106
 4, 1247,  992,  131
 5, 1380, 1375, 1061
 6,  967,  741,  282
 7,  964,  926,  808
 8, 1305,  813,  129
 9,  850,  971, 1332
10,  802, 1363, 1362
11, 1304,  860,  911
12,  944,  170,  874
13, 1022, 1060,  171
14, 1024, 1211,  997
15,  186, 1071,  835
16, 1373, 1084, 1069
17, 1389, 1156, 1135
18, 1113, 1057, 1081
19, 1365, 1161, 1138
20, 1203,  984,  997
** ... 13 like lines cut
*Element, type=CPS4
  34,  539,  388,  389,  397
  35,  377,   79,  388,  386
  36,  378,   80,  387,  384
  37,  375,   76,  450, 1215
  38,  663,  449,  579,  695
  39,  415,  411,  371,   75
  40,  529,  523,  362,   71
  41, 1221,  269,  629,  277
  42,  797,  276,  834,  765
  43,  991, 1334, 1017,  987
  44,  973,  980, 1051, 1005
  45,  941, 1355, 1013, 1067
  46, 1035,  841,  863,  264
  47,  262,  544,  651,  724
  48,  505,  524,  360,  359
  49,  527,  507,  546,  270
  50,  544,  270,  710,  651
  51,  320,  398,  288,    6
  52,  320,   30,  489,  398
  53,  489,  197,  400,  398
** ... 1277 like lines cut
*Nset, nset=d1
  55,  56,  57,  58,  59, 349, 350, 351, 352
*Elset, elset=d1
 205, 211, 217, 221, 222, 226, 563, 565
*Nset, nset=d2
  46,  47, 342, 343
*Elset, elset=d2
 162, 170, 541
*Nset, nset=fixed
   1,   2,   3,   4,   5,   6,   7,   8,   9,  10,  11,  12,  13,  14,  15,  16
  17,  18,  19,  20,  21,  22,  23,  24,  25,  26,  27,  28,  29,  30,  31,  32
  33,  34,  35,  36,  37,  38,  39,  40,  41,  42, 288, 289, 290, 291, 292, 293
 294, 295, 296, 297, 298, 299, 300, 301, 302, 303, 304, 305, 306, 307, 308, 309
 310, 311, 312, 313, 314, 315, 316, 317, 318, 319, 320, 321, 322, 323, 324, 325
 326, 327, 328, 329, 330, 331, 332, 333, 334, 335, 336, 337
*Elset, elset=fixed
  51,  52,  58,  59,  60,  61,  65,  67,  69,  70,  71,  72,  74,  75,  76,  90
 133, 134, 151, 157, 164, 171, 178, 183, 187, 189, 192, 194, 423, 424, 425, 426
 435, 436, 486, 490, 491, 492, 493, 494, 495, 496, 509, 511, 516, 518, 519, 538
 549, 552, 553, 554, 555, 557, 558, 580, 581, 582, 583, 584, 586, 587, 588, 590
 604, 605, 606, 607, 608, 609, 610, 611, 612, 613, 618, 619, 620, 621, 622, 623
 624, 625, 627, 628, 629, 635, 638, 645
*Nset, nset=Set-4, generate
    1,  1401,     1
*Elset, elset=Set-4, generate
    1,  1330,     1
*Nset, nset=contact_pressure
   7,  41,  42,  43,  44,  45,  46,  47,  48,  49,  50,  51,  52,  53,  54,  55
  56,  57,  58,  59,  60,  61,  62,  63,  64,  65,  66,  67,  68,  69,  70,  71
  72,  73,  74,  75,  76,  77,  78,  79,  80,  81, 334, 335, 336, 337, 338, 339
 340, 341, 342, 343, 344, 345, 346, 347, 348, 349, 350, 351, 352, 353, 354, 355
 356, 357, 358, 359, 360, 361, 362, 363, 364, 365, 366, 367, 368, 369, 370, 371
 372, 373, 374, 375, 376, 377, 378, 379
*Elset, elset=contact_pressure
  35,  36,  37,  39,  40,  48,  83,  84, 145, 147, 148, 162, 169, 170, 176, 177
 182, 186, 187, 192, 194, 201, 204, 205, 211, 217, 221, 222, 226, 231, 233, 239
 243, 244, 253, 254, 258, 265, 266, 268, 308, 350, 475, 482, 484, 519, 520, 521
 522, 523, 524, 525, 527, 528, 530, 531, 532, 533, 538, 541, 545, 560, 561, 563
 565, 567, 569, 571, 575, 577, 596, 599, 601, 645, 646, 650, 653, 654, 656, 661
 664, 667, 668, 672, 673, 674, 675
*Elset, elset=_Surf-1_S4, internal
 145, 169, 182, 204, 231, 475, 520, 523, 654
*Elset, elset=_Surf-1_S2, internal
 162, 170, 176, 177, 482, 521, 541, 575, 577, 596, 650
*Elset, elset=_Surf-1_S3, internal
  39,  40,  48,  83, 186, 201, 205, 211, 217, 221, 222, 226, 233, 243, 244, 253
 265, 266, 268, 350, 522, 527, 528, 530, 531, 532, 533, 561, 653, 668, 672
*Elset, elset=_Surf-1_S1, internal
  35,  36,  37,  84, 147, 148, 239, 254, 258, 308, 484, 524, 525, 538, 545, 560
 563, 565, 567, 569, 571, 599, 601, 646, 656, 661, 664, 667, 673, 674, 675
*Surface, type=ELEMENT, name=Surf-1
_Surf-1_S4, S4
_Surf-1_S2, S2
_Surf-1_S3, S3
_Surf-1_S1, S1
** Section: Section-1
*Solid Section, elset=Set-4, material=Mooney-Rivlin
,
*End Part
**  
*Part, name=Part-3
*Node
      1, -0.0250000004, 0.0408999994
      2,      -0.0137, 0.0408999994
      3, -0.00240000011, 0.0408999994
      4, 0.00889999978, 0.0408999994
      5, 0.0201999992, 0.0408999994
      6, 0.0315000005, 0.0408999994
      7, 0.0428000018, 0.0408999994
      8, 0.0540999994, 0.0408999994
      9, 0.0653999969, 0.0408999994
     10,  0.076700002, 0.0408999994
     11, 0.0879999995, 0.0408999994
*Element, type=R2D2
 1,  1,  2
 2,  2,  3
 3,  3,  4
 4,  4,  5
 5,  5,  6
 6,  6,  7
 7,  7,  8
 8,  8,  9
 9,  9, 10
10, 10, 11
*Node
     12, 0.0315000005, 0.0408999994,           0.
*Nset, nset=Part-3-RefPt_, internal
12, 
*Nset, nset=top, generate
  1,  12,   1
*Elset, elset=top, generate
  1,  10,   1
*Elset, elset=Part-3, generate
  1,  10,   1
*End Part
**  
**
** ASSEMBLY
**
*Assembly, name=Assembly
**  
*Instance, name=Part-1-1, part=Part-1
*End Instance
**  
*Instance, name=Part-3-1, part=Part-3
*End Instance
**  
*Nset, nset=Set-2, instance=Part-3-1, generate
  1,  11,   1
*Elset, elset=Set-2, instance=Part-3-1, generate
  1,  10,   1
*Elset, elset=_CP-3-Part-1-1_S4, internal, instance=Part-1-1
 145, 169, 182, 204, 231, 475, 520, 523, 654
*Elset, elset=_CP-3-Part-1-1_S2, internal, instance=Part-1-1
 162, 170, 176, 177, 482, 521, 541, 575, 577, 596, 650
*Elset, elset=_CP-3-Part-1-1_S3, internal, instance=Part-1-1
  39,  40,  48,  83, 186, 201, 205, 211, 217, 221, 222, 226, 233, 243, 244, 253
 265, 266, 268, 350, 522, 527, 528, 530, 531, 532, 533, 561, 653, 668, 672
*Elset, elset=_CP-3-Part-1-1_S1, internal, instance=Part-1-1
  35,  36,  37,  84, 147, 148, 239, 254, 258, 308, 484, 524, 525, 538, 545, 560
 563, 565, 567, 569, 571, 599, 601, 646, 656, 661, 664, 667, 673, 674, 675
*Surface, type=ELEMENT, name=CP-3-Part-1-1
_CP-3-Part-1-1_S4, S4
_CP-3-Part-1-1_S2, S2
_CP-3-Part-1-1_S3, S3
_CP-3-Part-1-1_S1, S1
*Elset, elset=_Surf-5_SNEG, internal, instance=Part-3-1, generate
  1,  10,   1
*Surface, type=ELEMENT, name=Surf-5
_Surf-5_SNEG, SNEG
*Elset, elset=_s_Surf-1_S3, internal, instance=Part-1-1
  39,  40,  48,  51,  65,  67,  71,  72,  75,  83,  90, 186, 187, 192, 201, 205
 211, 217, 221, 222, 226, 233, 243, 244, 253, 265, 266, 268, 350, 486, 493, 494
 495, 496, 519, 522, 527, 528, 530, 531, 532, 533, 558, 561, 627, 638, 645, 653
 668, 672
*Elset, elset=_s_Surf-1_S1, internal, instance=Part-1-1
  35,  36,  37,  52,  58,  59,  60,  61,  84, 133, 134, 147, 148, 194, 239, 254
 258, 308, 423, 424, 425, 426, 484, 524, 525, 538, 545, 549, 552, 553, 554, 555
 557, 560, 563, 565, 567, 569, 571, 580, 587, 599, 601, 604, 605, 606, 607, 608
 609, 610, 611, 612, 613, 618, 619, 620, 621, 622, 623, 624, 625, 628, 635, 646
 656, 661, 664, 667, 673, 674, 675
*Elset, elset=_s_Surf-1_S2, internal, instance=Part-1-1
  70,  76, 151, 157, 162, 164, 170, 171, 176, 177, 178, 183, 189, 192, 435, 482
 521, 538, 541, 575, 577, 581, 582, 583, 584, 586, 588, 590, 596, 629, 650
*Elset, elset=_s_Surf-1_S4, internal, instance=Part-1-1
  51,  69,  74,  75, 145, 169, 182, 204, 231, 436, 475, 490, 491, 492, 509, 511
 516, 518, 520, 523, 654
*Surface, type=ELEMENT, name=s_Surf-1
_s_Surf-1_S3, S3
_s_Surf-1_S1, S1
_s_Surf-1_S2, S2
_s_Surf-1_S4, S4
*Rigid Body, ref node=Part-3-1.Part-3-RefPt_, elset=Part-3-1.Part-3
*End Assembly
** 
** MATERIALS
** 
*Material, name=Mooney-Rivlin
*Hyperelastic, mooney-rivlin
 4.57693e+06,     553472., 1.95568e-09
** 
** INTERACTION PROPERTIES
** 
*Surface Interaction, name=IntProp-1
1.,
*Friction, slip tolerance=0.005
 0.05,
*Surface Interaction, name=IntProp-2
1.,
*Friction, slip tolerance=0.005
 0.05,
** 
** CONTACT INITIALIZATION DATA
** 
*Contact Initialization Data, name=CInit-1
** 
** BOUNDARY CONDITIONS
** 
** Name: BC-1 Type: Displacement/Rotation
*Boundary
Part-1-1.fixed, 1, 1
Part-1-1.fixed, 2, 2
** 
** INTERACTIONS
** 
** Interaction: Int-2
*Contact Pair, interaction=IntProp-1, type=SURFACE TO SURFACE, adjust=1e-05
s_Surf-1, Surf-5
** Interaction: self_contact
*Contact Pair, interaction=IntProp-1, type=SURFACE TO SURFACE, adjust=1e-05
s_Surf-1, s_Surf-1
** ----------------------------------------------------------------
** 
** STEP: Step-1
** 
*Step, name=Step-1, nlgeom=YES, inc=2000
*Static, direct
0.05, 1., 
** 
** BOUNDARY CONDITIONS
** 
** Name: BC-2 Type: Displacement/Rotation
*Boundary
Set-2, 1, 1
Set-2, 2, 2, -0.0126
** 
** OUTPUT REQUESTS
** 
*Restart, write, frequency=0
** 
** FIELD OUTPUT: F-Output-1
** 
*Output, field
*Node Output
CF, RF, U
*Element Output, directions=YES
HP, LE, MISES, P, PE, PEEQ, PEMAG, S
*Contact Output
CDISP, CSTRESS
** 
** FIELD OUTPUT: F-Output-2
** 
*Element Output, directions=YES
HP, MISES, P
*Contact Output
CSTRESS, 
** 
** HISTORY OUTPUT: H-Output-1
** 
*Output, history, variable=PRESELECT
*End Step
