*Heading
** Job name: Job-1 Model name: Model-1
** Generated by: Abaqus/CAE 2018
*Preprint, echo=NO, model=NO, history=NO, contact=NO
**
** PARTS
**
*Part, name=Part-1
*Node
      1,           0., 0.00241538463
      2,           0., 0.00483076926
      3,           0., 0.00724615389
      4,           0., 0.0108692311
      5,           0., 0.0132846152
      6,           0.,           0.
      7,           0., 0.0156999994
      8, 0.0604799986,           0.
      9, 0.0579599999,           0.
     10, 0.0554400012,           0.
     11, 0.0529199988,           0.
     12, 0.0504000001,           0.
     13, 0.0478800014,           0.
     14, 0.0441000015,           0.
     15,  0.041579999,           0.
     16, 0.0390600003,           0.
     17, 0.0365400016,           0.
     18, 0.0340199992,           0.
     19, 0.0315000005,           0.
     20, 0.0289799999,           0.
** ... 1402 like lines cut
*Element, type=CPS3
 1,  861,  787,  833
 2, 1417, 1101, 1082
 3, 1360, 1191,  144
 4,  748,  684,  747
 5, 1340, 1319,  825
 6, 1017,  975,  271
 7,  734,  154, 1282
 8, 1251,  247,  645
 9, 1365,  859,  162
10,  832,  147,  759
11, 1307, 1122,  867
12,  982,  158,  872
13, 1375,  849,  982
14,  805, 1362,  192
15, 1358,  266,  822
16, 1371,  898,  294
17, 1287,  929, 1013
18, 1367,  173,  998
19,  902, 1379,  992
20, 1398,  941,  270
** ... 26 like lines cut
*Element, type=CPS4
  47,  556,  634,  416,  410
  48,  813,  570,  476,  474
  49,  477,  475,  644,  569
  50,  472,   78,  473,  588
  51,  473,   78,  394,  477
  52,  579,   83,  643,  471
  53,  587,  604, 1258,  666
  54,  244, 1258,  801,  863
  55, 1077, 1356,  984,  108
  56,  242, 1120, 1145, 1165
  57, 1086, 1136, 1153, 1405
  58, 1060, 1086, 1405, 1195
  59,  821,  887,  763,  238
  60,  976, 1023,  683,  103
  61,  237,  548,  407,  551
  62,  551,  407,  365,   58
  63,   58,  364,  403,  551
  64,  246,  403,  364,   57
  65,  550,  699,  363,   56
  66, 1262,  682, 1283,  636
** ... 1291 like lines cut
*Nset, nset=d1
  55,  56,  57,  58,  59, 362, 363, 364, 365
*Elset, elset=d1
  62,  63,  64,  65, 238, 587, 592, 755
*Nset, nset=d2
  46,  47, 356, 357
*Elset, elset=d2
 192, 200, 582
*Nset, nset=fixed
   1,   2,   3,   4,   5,   6,   7,   8,   9,  10,  11,  12,  13,  14,  15,  16
  17,  18,  19,  20,  21,  22,  23,  24,  25,  26,  27,  28,  29,  30,  31,  32
  33,  34,  35,  36,  37,  38,  39,  40,  41,  42, 302, 303, 304, 305, 306, 307
 308, 309, 310, 311, 312, 313, 314, 315, 316, 317, 318, 319, 320, 321, 322, 323
 324, 325, 326, 327, 328, 329, 330, 331, 332, 333, 334, 335, 336, 337, 338, 339
 340, 341, 342, 343, 344, 345, 346, 347, 348, 349, 350, 351
*Elset, elset=fixed
  83,  84,  90,  91,  92,  93,  97,  99, 101, 102, 103, 104, 105, 107, 108, 109
 123, 155, 156, 180, 187, 194, 201, 207, 213, 217, 219, 222, 224, 410, 411, 412
 413, 420, 421, 523, 526, 528, 529, 530, 531, 532, 533, 534, 535, 548, 550, 555
 557, 558, 579, 596, 597, 598, 599, 600, 602, 611, 612, 613, 614, 615, 617, 618
 620, 622, 655, 656, 657, 658, 659, 660, 661, 662, 663, 664, 670, 671, 672, 673
 674, 675, 676, 677, 679, 680, 686, 696
*Nset, nset=Set-4, generate
    1,  1422,     1
*Elset, elset=Set-4, generate
    1,  1357,     1
*Nset, nset=contact_pressure
   7,  41,  42,  43,  44,  45,  46,  47,  48,  49,  50,  51,  52,  53,  54,  55
  56,  57,  58,  59,  60,  61,  62,  63,  64,  65,  66,  67,  68,  69,  70,  71
  72,  73,  74,  75,  76,  77,  78,  79,  80,  81, 348, 349, 350, 351, 352, 353
 354, 355, 356, 357, 358, 359, 360, 361, 362, 363, 364, 365, 366, 367, 368, 369
 370, 371, 372, 373, 374, 375, 376, 377, 378, 379, 380, 381, 382, 383, 384, 385
 386, 387, 388, 389, 390, 391, 392, 393, 394
*Elset, elset=contact_pressure
  51,  62,  63,  64,  65,  72,  73,  74,  76,  78, 116, 117, 185, 192, 199, 200
 205, 206, 211, 216, 217, 222, 224, 226, 229, 234, 236, 238, 245, 248, 253, 254
 257, 258, 259, 268, 272, 287, 291, 330, 331, 509, 516, 558, 559, 560, 561, 562
 563, 564, 565, 566, 567, 568, 569, 570, 571, 572, 573, 574, 575, 576, 577, 578
 579, 582, 584, 585, 586, 587, 592, 605, 607, 626, 628, 631, 633, 634, 635, 639
 644, 645, 649, 652, 653, 696, 720, 755
*Elset, elset=_Surf-1_S4, internal
  72,  78, 199, 211, 236, 248, 258, 259, 268, 272, 330, 331, 559, 562, 566, 567
 568, 569, 570, 571, 573, 574, 575, 576, 577, 579, 631
*Elset, elset=_Surf-1_S2, internal
  51,  73,  74, 192, 200, 205, 206, 234, 253, 254, 516, 560, 561, 563, 564, 572
 582, 584, 585, 586, 605, 607, 628, 633, 634, 635, 639, 644, 652, 653
*Elset, elset=_Surf-1_S3, internal
  62,  64,  65, 116, 185, 216, 226, 229, 257, 287, 509, 587, 592, 626, 720, 755
*Elset, elset=_Surf-1_S1, internal
  63,  76, 117, 238, 245, 291, 565, 578, 645, 649
*Surface, type=ELEMENT, name=Surf-1
_Surf-1_S4, S4
_Surf-1_S2, S2
_Surf-1_S3, S3
_Surf-1_S1, S1
** Section: Section-1
*Solid Section, elset=Set-4, material=Mooney-Rivlin
,
*End Part
**  
*Part, name=Part-3
*Node
      1, -0.0250000004, 0.0408999994
      2,      -0.0137, 0.0408999994
      3, -0.00240000011, 0.0408999994
      4, 0.00889999978, 0.0408999994
      5, 0.0201999992, 0.0408999994
      6, 0.0315000005, 0.0408999994
      7, 0.0428000018, 0.0408999994
      8, 0.0540999994, 0.0408999994
      9, 0.0653999969, 0.0408999994
     10,  0.076700002, 0.0408999994
     11, 0.0879999995, 0.0408999994
*Element, type=R2D2
 1,  1,  2
 2,  2,  3
 3,  3,  4
 4,  4,  5
 5,  5,  6
 6,  6,  7
 7,  7,  8
 8,  8,  9
 9,  9, 10
10, 10, 11
*Node
     12, 0.0315000005, 0.0408999994,           0.
*Nset, nset=Part-3-RefPt_, internal
12, 
*Nset, nset=top, generate
  1,  12,   1
*Elset, elset=top, generate
  1,  10,   1
*Elset, elset=Part-3, generate
  1,  10,   1
*End Part
**  
**
** ASSEMBLY
**
*Assembly, name=Assembly
**  
*Instance, name=Part-1-1, part=Part-1
*End Instance
**  
*Instance, name=Part-3-1, part=Part-3
*End Instance
**  
*Nset, nset=Set-2, instance=Part-3-1, generate
  1,  11,   1
*Elset, elset=Set-2, instance=Part-3-1, generate
  1,  10,   1
*Elset, elset=_CP-3-Part-1-1_S4, internal, instance=Part-1-1
  72,  78, 199, 211, 236, 248, 258, 259, 268, 272, 330, 331, 559, 562, 566, 567
 568, 569, 570, 571, 573, 574, 575, 576, 577, 579, 631
*Elset, elset=_CP-3-Part-1-1_S2, internal, instance=Part-1-1
  51,  73,  74, 192, 200, 205, 206, 234, 253, 254, 516, 560, 561, 563, 564, 572
 582, 584, 585, 586, 605, 607, 628, 633, 634, 635, 639, 644, 652, 653
*Elset, elset=_CP-3-Part-1-1_S3, internal, instance=Part-1-1
  62,  64,  65, 116, 185, 216, 226, 229, 257, 287, 509, 587, 592, 626, 720, 755
*Elset, elset=_CP-3-Part-1-1_S1, internal, instance=Part-1-1
  63,  76, 117, 238, 245, 291, 565, 578, 645, 649
*Surface, type=ELEMENT, name=CP-3-Part-1-1
_CP-3-Part-1-1_S4, S4
_CP-3-Part-1-1_S2, S2
_CP-3-Part-1-1_S3, S3
_CP-3-Part-1-1_S1, S1
*Elset, elset=_Surf-5_SNEG, internal, instance=Part-3-1, generate
  1,  10,   1
*Surface, type=ELEMENT, name=Surf-5
_Surf-5_SNEG, SNEG
*Elset, elset=_s_Surf-1_S3, internal, instance=Part-1-1
  62,  64,  65,  83,  97,  99, 101, 102, 104, 105, 108, 116, 123, 185, 216, 217
 222, 226, 229, 257, 287, 509, 523, 526, 531, 532, 533, 534, 535, 558, 587, 592
 600, 602, 626, 696, 720, 755
*Elset, elset=_s_Surf-1_S1, internal, instance=Part-1-1
  63,  76,  84,  90,  91,  92,  93, 103, 117, 155, 156, 224, 238, 245, 291, 410
 411, 412, 413, 529, 530, 565, 578, 579, 596, 597, 598, 599, 611, 645, 649, 655
 656, 657, 658, 659, 660, 661, 662, 663, 664, 670, 671, 672, 673, 674, 675, 676
 677, 679, 686
*Elset, elset=_s_Surf-1_S4, internal, instance=Part-1-1
  72,  78,  83, 107, 108, 199, 211, 236, 248, 258, 259, 268, 272, 330, 331, 421
 528, 548, 550, 555, 557, 559, 562, 566, 567, 568, 569, 570, 571, 573, 574, 575
 576, 577, 579, 631
*Elset, elset=_s_Surf-1_S2, internal, instance=Part-1-1
  51,  73,  74, 109, 180, 187, 192, 194, 200, 201, 205, 206, 207, 213, 219, 222
 234, 253, 254, 420, 516, 560, 561, 563, 564, 572, 582, 584, 585, 586, 605, 607
 612, 613, 614, 615, 617, 618, 620, 622, 628, 633, 634, 635, 639, 644, 652, 653
 680,
*Surface, type=ELEMENT, name=s_Surf-1
_s_Surf-1_S3, S3
_s_Surf-1_S1, S1
_s_Surf-1_S4, S4
_s_Surf-1_S2, S2
*Rigid Body, ref node=Part-3-1.Part-3-RefPt_, elset=Part-3-1.Part-3
*End Assembly
** 
** MATERIALS
** 
*Material, name=Mooney-Rivlin
*Hyperelastic, mooney-rivlin
 4.57693e+06,     553472., 1.95568e-09
** 
** INTERACTION PROPERTIES
** 
*Surface Interaction, name=IntProp-1
1.,
*Friction, slip tolerance=0.005
 0.05,
*Surface Interaction, name=IntProp-2
1.,
*Friction, slip tolerance=0.005
 0.05,
** 
** CONTACT INITIALIZATION DATA
** 
*Contact Initialization Data, name=CInit-1
** 
** BOUNDARY CONDITIONS
** 
** Name: BC-1 Type: Displacement/Rotation
*Boundary
Part-1-1.fixed, 1, 1
Part-1-1.fixed, 2, 2
** 
** INTERACTIONS
** 
** Interaction: Int-2
*Contact Pair, interaction=IntProp-1, type=SURFACE TO SURFACE, adjust=1e-05
s_Surf-1, Surf-5
** Interaction: self_contact
*Contact Pair, interaction=IntProp-1, type=SURFACE TO SURFACE, adjust=1e-05
s_Surf-1, s_Surf-1
** ----------------------------------------------------------------
** 
** STEP: Step-1
** 
*Step, name=Step-1, nlgeom=YES, inc=2000
*Static, direct
0.05, 1., 
** 
** BOUNDARY CONDITIONS
** 
** Name: BC-2 Type: Displacement/Rotation
*Boundary
Set-2, 1, 1
Set-2, 2, 2, -0.0126
** 
** OUTPUT REQUESTS
** 
*Restart, write, frequency=0
** 
** FIELD OUTPUT: F-Output-1
** 
*Output, field
*Node Output
CF, RF, U
*Element Output, directions=YES
HP, LE, MISES, P, PE, PEEQ, PEMAG, S
*Contact Output
CDISP, CSTRESS
** 
** FIELD OUTPUT: F-Output-2
** 
*Element Output, directions=YES
HP, MISES, P
*Contact Output
CSTRESS, 
** 
** HISTORY OUTPUT: H-Output-1
** 
*Output, history, variable=PRESELECT
*End Step
